
 ===================================================
  XFOIL Version 6.99
  Copyright (C) 2000   Mark Drela, Harold Youngren

  This software comes with ABSOLUTELY NO WARRANTY,
    subject to the GNU General Public License.

  Caveat computor
 ===================================================

 File  xfoil.def  not found

   QUIT    Exit program

  .OPER    Direct operating point(s)
  .MDES    Complex mapping design routine
  .QDES    Surface speed design routine
  .GDES    Geometry design routine

   SAVE f  Write airfoil to labeled coordinate file
   PSAV f  Write airfoil to plain coordinate file
   ISAV f  Write airfoil to ISES coordinate file
   MSAV f  Write airfoil to MSES coordinate file
   REVE    Reverse written-airfoil node ordering

   LOAD f  Read buffer airfoil from coordinate file
   NACA i  Set NACA 4,5-digit airfoil and buffer airfoil
   INTE    Set buffer airfoil by interpolating two airfoils
   NORM    Buffer airfoil normalization toggle
   XYCM rr Change CM reference location, currently  0.25000 0.00000

   BEND    Display structural properties of current airfoil

   PCOP    Set current-airfoil panel nodes directly from buffer airfoil points
   PANE    Set current-airfoil panel nodes ( 160 ) based on curvature
  .PPAR    Show/change paneling

  .PLOP    Plotting options

   WDEF f  Write  current-settings file
   RDEF f  Reread current-settings file
   NAME s  Specify new airfoil name
   NINC    Increment name version number

   Z       Zoom    | (available in all menus)
   U       Unzoom  | 

 XFOIL   c>  
 Labeled airfoil file.  Name:  SG6040                                          

 Number of input coordinate points:  81
 Counterclockwise ordering
 Max thickness =     0.160016  at x =   0.353
 Max camber    =     0.025156  at x =   0.582

  LE  x,y  =   0.00009  -0.00040  |   Chord =   0.99991
  TE  x,y  =   1.00000   0.00000  |

 Current airfoil nodes set from buffer airfoil nodes (  81 )

 XFOIL   c>  
  F  disk file
  C  current airfoil  SG6040                                          

  Select source of airfoil "0" ( F C ):  
Enter filename   s>  
  Select source of airfoil "1" ( F C ):  
Enter filename   s>  
 airfoil "0":  SG6040                                          
 airfoil "1":  WORTMANN FX 63-137 AIRFOIL                      

Specify interpolating fraction  0...1   r>   Max thickness =     0.155421  at x =   0.352
 Max camber    =     0.031211  at x =   0.568

Enter new airfoil name   s>  
 Result has been placed in buffer airfoil
 Execute PCOP or PANE to set new current airfoil

 XFOIL   c>  
 Sharp trailing edge

 Paneling parameters used...
   Number of panel nodes       160
   Panel bunching parameter    1.000
   TE/LE panel density ratio   0.150
   Refined-area/LE panel density ratio    0.200
   Top    side refined area x/c limits  1.000 1.000
   Bottom side refined area x/c limits  1.000 1.000

 XFOIL   c>  
 XFOIL   c>  
 XFOIL   c>  
.OPERi   c>  
.OPERi   c>  
 Sonic Cp =   -550.04      Sonic Q/Qinf =    26.096


.OPERi   c>  
 M  =    0.0350
 Re =    100000

.OPERv   c>  
 Polar  1 newly created for accumulation
 Airfoil archived with polar: BlendedAirfoil                                  

Enter  polar save filename  OR  <return> for no file   s>  
 Polar save file will NOT be written

Enter  polar dump filename  OR  <return> for no file   s>  
 Polar dump file will NOT be written

 Polar accumulation enabled

.OPERva   c>   Calculating unit vorticity distributions ...
 Calculating wake trajectory ...
 Calculating source influence matrix ...

 Solving BL system ...

 Initializing BL ...
    side            1  ...
 MRCHUE: Inverse mode at  53     Hk =   3.886
 MRCHUE: Inverse mode at  54     Hk =   4.219
 MRCHUE: Inverse mode at  55     Hk =   4.543
 MRCHUE: Inverse mode at  56     Hk =   4.861
 MRCHUE: Inverse mode at  57     Hk =   5.173
 MRCHUE: Inverse mode at  58     Hk =   5.481
 MRCHUE: Inverse mode at  59     Hk =   5.785
 MRCHUE: Inverse mode at  60     Hk =   6.083
 MRCHUE: Inverse mode at  61     Hk =   6.378
 MRCHUE: Inverse mode at  62     Hk =   6.671
 MRCHUE: Inverse mode at  63     Hk =   6.961
 MRCHUE: Inverse mode at  64     Hk =   7.248
 MRCHUE: Inverse mode at  65     Hk =   7.533
 MRCHUE: Inverse mode at  66     Hk =   7.816
 MRCHUE: Inverse mode at  67     Hk =   8.098
 MRCHUE: Inverse mode at  68     Hk =   8.379
 MRCHUE: Inverse mode at  69     Hk =   8.659
 MRCHUE: Inverse mode at  70     Hk =   8.936
 MRCHUE: Inverse mode at  71     Hk =   9.211
 MRCHUE: Inverse mode at  72     Hk =   9.484
 MRCHUE: Inverse mode at  73     Hk =   8.455
 MRCHUE: Inverse mode at  74     Hk =   7.421
 MRCHUE: Inverse mode at  75     Hk =   6.623
 MRCHUE: Inverse mode at  76     Hk =   5.974
 MRCHUE: Inverse mode at  77     Hk =   5.434
 MRCHUE: Inverse mode at  78     Hk =   4.978
 MRCHUE: Inverse mode at  79     Hk =   4.588
 MRCHUE: Inverse mode at  80     Hk =   4.252
 MRCHUE: Inverse mode at  81     Hk =   3.969
 MRCHUE: Inverse mode at  82     Hk =   3.738
 MRCHUE: Convergence failed at  83  side 1    Res =  0.7980E+01
    side            2  ...
 MRCHUE: Inverse mode at  48     Hk =   3.800
 MRCHUE: Inverse mode at  49     Hk =   4.109
 MRCHUE: Inverse mode at  50     Hk =   4.413
 MRCHUE: Inverse mode at  51     Hk =   4.713
 MRCHUE: Inverse mode at  52     Hk =   5.010
 MRCHUE: Inverse mode at  53     Hk =   5.303
 MRCHUE: Inverse mode at  54     Hk =   5.592
 MRCHUE: Inverse mode at  55     Hk =   5.877
 MRCHUE: Inverse mode at  56     Hk =   6.157
 MRCHUE: Inverse mode at  57     Hk =   6.432
 MRCHUE: Inverse mode at  58     Hk =   6.702
 MRCHUE: Inverse mode at  59     Hk =   6.968
 MRCHUE: Inverse mode at  60     Hk =   7.228
 MRCHUE: Inverse mode at  61     Hk =   7.485
 MRCHUE: Inverse mode at  62     Hk =   7.738
 MRCHUE: Inverse mode at  63     Hk =   7.987
 MRCHUE: Inverse mode at  64     Hk =   8.232
 MRCHUE: Inverse mode at  65     Hk =   8.474
 MRCHUE: Inverse mode at  66     Hk =   8.712
 MRCHUE: Inverse mode at  67     Hk =   8.947
 MRCHUE: Inverse mode at  68     Hk =   9.178
 MRCHUE: Inverse mode at  69     Hk =   9.405
 MRCHUE: Inverse mode at  70     Hk =   9.630
 MRCHUE: Inverse mode at  71     Hk =   9.849
 MRCHUE: Inverse mode at  72     Hk =   9.944
 MRCHUE: Inverse mode at  73     Hk =   8.929
 MRCHUE: Inverse mode at  74     Hk =   8.181
 MRCHUE: Inverse mode at  75     Hk =   7.594
 MRCHUE: Inverse mode at  76     Hk =   7.123
 MRCHUE: Inverse mode at  77     Hk =   6.740
 MRCHUE: Inverse mode at  78     Hk =   6.425
 MRCHUE: Inverse mode at  79     Hk =   6.249
 MRCHUE: Inverse mode at  81     Hk =   4.293
 MRCHUE: Inverse mode at  82     Hk =   3.899
 MRCHUE: Inverse mode at  83     Hk =   3.589
 MRCHUE: Inverse mode at  84     Hk =   3.337

 MRCHDU: Convergence failed at  83  side 1    Res =  0.6551E+01
 Side 1  free  transition at x/c =  0.8492   73
 Side 2  free  transition at x/c =  0.9124   72

   1   rms: 0.3445E+00   max: 0.3028E+01   T at   72  2   RLX: 0.222
       a =  0.000      CL =  0.5481
      Cm = -0.1231     CD =  0.01398   =>   CDf =  0.00773    CDp =  0.00625

 Side 1  free  transition at x/c =  0.8430   72
 Side 2  free  transition at x/c =  0.8813   70

   2   rms: 0.7657E+00   max: 0.4033E+01   T at   70  2   RLX: 0.151
       a =  0.000      CL =  0.6742
      Cm = -0.1448     CD =  0.01585   =>   CDf =  0.00763    CDp =  0.00821

 MRCHDU: Convergence failed at  79  side 1    Res =  0.1322E+01
 MRCHDU: Convergence failed at  80  side 1    Res =  0.4022E+01
 MRCHDU: Convergence failed at  81  side 1    Res =  0.9567E+01
 MRCHDU: Convergence failed at  82  side 1    Res =  0.5193E+02
 MRCHDU: Convergence failed at  83  side 1    Res =  0.1583E+02
 Side 1  free  transition at x/c =  0.8776   74
 Side 2  free  transition at x/c =  0.8575   69
 idif Ue xi dudx           1  0.15788351      1.94096565E-03   81.342766    
 Uenew xinew           2  7.05928029E-03  8.67843628E-05

   3   rms: 0.1173E+01   max: 0.6577E+01   T at   74  1   RLX: 0.128
       a =  0.000      CL =  0.5373
      Cm = -0.1298     CD =  0.01567   =>   CDf =  0.00777    CDp =  0.00790

 Side 1  free  transition at x/c =  0.8363   71
 Side 2  free  transition at x/c =  0.8601   70
 idif Ue xi dudx           1  0.17859183      2.24518776E-03   79.544273    
 Uenew xinew           2  2.70722993E-02  3.40342522E-04

   4   rms: 0.7421E+00   max: 0.5327E+01   D at    2  2   RLX: 0.204
       a =  0.000      CL =  0.3520
      Cm = -0.0905     CD =  0.02059   =>   CDf =  0.00758    CDp =  0.01301

 Side 1  free  transition at x/c =  0.8137   69
 Side 2  free  transition at x/c =  0.8634   71
 idif Ue xi dudx           1  0.19536635      2.97212601E-03   65.732864    
 Uenew xinew           2  6.47015870E-02  9.84311104E-04

   5   rms: 0.5814E+00   max: 0.3474E+01   T at    2  2   RLX: 0.266
       a =  0.000      CL =  0.1689
      Cm = -0.0566     CD =  0.02215   =>   CDf =  0.00737    CDp =  0.01477

 Side 1  free  transition at x/c =  0.8009   67
 Side 2  free  transition at x/c =  0.8741   73
 idif Ue xi dudx           1  0.14799395      2.44665146E-03   60.488369    
 Uenew xinew           2  2.23245602E-02  3.69071960E-04

   6   rms: 0.3441E+00   max: -.1886E+01   D at   81  2   RLX: 0.265
       a =  0.000      CL =  0.0679
      Cm = -0.0378     CD =  0.02057   =>   CDf =  0.00718    CDp =  0.01339

 Side 1  free  transition at x/c =  0.7891   65
 Side 2  free  transition at x/c =  0.8695   74

   7   rms: 0.2317E+00   max: -.1586E+01   D at   82  2   RLX: 0.315
       a =  0.000      CL =  0.0116
      Cm = -0.0296     CD =  0.02284   =>   CDf =  0.00708    CDp =  0.01576

 Side 1  free  transition at x/c =  0.7764   64
 Side 2  free  transition at x/c =  0.8605   73

   8   rms: 0.2570E+00   max: 0.8417E+00   D at   76  2   RLX: 0.506
       a =  0.000      CL =  0.1478
      Cm = -0.0486     CD =  0.02587   =>   CDf =  0.00704    CDp =  0.01883

 Side 1  free  transition at x/c =  0.7966   67
 Side 2  free  transition at x/c =  0.8368   71

   9   rms: 0.7983E-01   max: 0.3651E+00   T at   71  2
       a =  0.000      CL =  0.2359
      Cm = -0.0658     CD =  0.02661   =>   CDf =  0.00719    CDp =  0.01942

 Side 1  free  transition at x/c =  0.7940   67
 Side 2  free  transition at x/c =  0.8220   69

  10   rms: 0.6743E-01   max: -.8448E+00   D at    2  1   RLX: 0.592
       a =  0.000      CL =  0.2631
      Cm = -0.0697     CD =  0.02576   =>   CDf =  0.00723    CDp =  0.01852
 VISCAL:  Convergence failed

.OPERva   c>  
.OPERva   c>  
.OPERva   c>   Calculating wake trajectory ...
 Calculating source influence matrix ...

 Solving BL system ...

 Side 1  free  transition at x/c =  0.8013   68
 Side 2  free  transition at x/c =  0.8210   69

   1   rms: 0.6942E-01   max: 0.3346E+00   D at   72  1
       a =  0.050      CL =  0.2376
      Cm = -0.0650     CD =  0.02672   =>   CDf =  0.00728    CDp =  0.01944

 Side 1  free  transition at x/c =  0.7922   67
 Side 2  free  transition at x/c =  0.8225   69

   2   rms: 0.1031E+00   max: -.6121E+00   T at   67  1   RLX: 0.817
       a =  0.050      CL =  0.3177
      Cm = -0.0766     CD =  0.02454   =>   CDf =  0.00723    CDp =  0.01731

 Side 1  free  transition at x/c =  0.8160   69
 Side 2  free  transition at x/c =  0.8221   69

   3   rms: 0.9167E-01   max: 0.5703E+00   D at   69  1
       a =  0.050      CL =  0.2993
      Cm = -0.0744     CD =  0.02511   =>   CDf =  0.00738    CDp =  0.01773

 Side 1  free  transition at x/c =  0.8060   68
 Side 2  free  transition at x/c =  0.8220   69
 idif Ue xi dudx           1  0.26937819      4.04000282E-03   66.677719    
 Uenew xinew           2  0.13683520      2.05218792E-03

   4   rms: 0.9496E+00   max: 0.4937E+01   T at   68  1   RLX: 0.257
       a =  0.050      CL =  0.0870
      Cm = -0.0454     CD =  0.02860   =>   CDf =  0.00736    CDp =  0.02124

 Side 1  free  transition at x/c =  0.7690   65
 Side 2  free  transition at x/c =  0.8239   70

   5   rms: 0.1039E+00   max: -.5274E+00   D at   66  1   RLX: 0.948
       a =  0.050      CL =  0.1768
      Cm = -0.0564     CD =  0.02807   =>   CDf =  0.00702    CDp =  0.02105

 Side 1  free  transition at x/c =  0.7792   66
 Side 2  free  transition at x/c =  0.8238   70

   6   rms: 0.2673E-01   max: -.1530E+00   D at   90  2
       a =  0.050      CL =  0.1928
      Cm = -0.0586     CD =  0.02749   =>   CDf =  0.00714    CDp =  0.02035

 Side 1  free  transition at x/c =  0.7815   66
 Side 2  free  transition at x/c =  0.8228   70

   7   rms: 0.3359E-02   max: -.2307E-01   D at   90  2
       a =  0.050      CL =  0.1945
      Cm = -0.0589     CD =  0.02758   =>   CDf =  0.00715    CDp =  0.02043

 Side 1  free  transition at x/c =  0.7818   66
 Side 2  free  transition at x/c =  0.8226   70

   8   rms: 0.9479E-04   max: 0.5690E-03   D at   73  2
       a =  0.050      CL =  0.1946
      Cm = -0.0589     CD =  0.02759   =>   CDf =  0.00716    CDp =  0.02043
 plradd ia,ip,cpol            1          79  0.25820407    

 Point added to stored polar  1
 Save file unspecified or not available
 Dump file unspecified or not available

.OPERva   c>  
.OPERva   c>  
.OPERva   c>   Calculating wake trajectory ...
 Calculating source influence matrix ...

 Solving BL system ...

 Side 1  free  transition at x/c =  0.7819   66
 Side 2  free  transition at x/c =  0.8226   70

   1   rms: 0.1222E-01   max: -.6307E-01   D at    3  2
       a =  0.100      CL =  0.2028
      Cm = -0.0591     CD =  0.02747   =>   CDf =  0.00716    CDp =  0.02032

 Side 1  free  transition at x/c =  0.7813   66
 Side 2  free  transition at x/c =  0.8244   70

   2   rms: 0.4822E-03   max: -.2521E-02   D at   71  2
       a =  0.100      CL =  0.2031
      Cm = -0.0592     CD =  0.02748   =>   CDf =  0.00717    CDp =  0.02031

 Side 1  free  transition at x/c =  0.7813   66
 Side 2  free  transition at x/c =  0.8244   70

   3   rms: 0.6865E-05   max: 0.4394E-04   D at   84  2
       a =  0.100      CL =  0.2031
      Cm = -0.0592     CD =  0.02748   =>   CDf =  0.00717    CDp =  0.02031
 plradd ia,ip,cpol            2          79  0.25820407    

 Point added to stored polar  1
 Save file unspecified or not available
 Dump file unspecified or not available

.OPERva   c>  
.OPERva   c>  
.OPERva   c>   Calculating wake trajectory ...
 Calculating source influence matrix ...

 Solving BL system ...

 Side 1  free  transition at x/c =  0.7813   66
 Side 2  free  transition at x/c =  0.8244   70

   1   rms: 0.1136E-01   max: -.3746E-01   T at   70  2
       a =  0.150      CL =  0.2121
      Cm = -0.0596     CD =  0.02735   =>   CDf =  0.00717    CDp =  0.02018

 Side 1  free  transition at x/c =  0.7808   66
 Side 2  free  transition at x/c =  0.8263   70

   2   rms: 0.5671E-03   max: 0.4128E-02   T at    4  2
       a =  0.150      CL =  0.2124
      Cm = -0.0597     CD =  0.02737   =>   CDf =  0.00716    CDp =  0.02020

 Side 1  free  transition at x/c =  0.7808   67
 Side 2  free  transition at x/c =  0.8263   69

   3   rms: 0.6292E-02   max: -.1127E+00   T at    2  1
       a =  0.150      CL =  0.2124
      Cm = -0.0597     CD =  0.02736   =>   CDf =  0.00719    CDp =  0.02018

 Side 1  free  transition at x/c =  0.7808   67
 Side 2  free  transition at x/c =  0.8263   69

   4   rms: 0.1088E-03   max: -.1405E-02   D at    3  1
       a =  0.150      CL =  0.2124
      Cm = -0.0597     CD =  0.02736   =>   CDf =  0.00719    CDp =  0.02018

 Side 1  free  transition at x/c =  0.7808   67
 Side 2  free  transition at x/c =  0.8263   69

   5   rms: 0.7438E-04   max: -.9682E-03   D at    2  1
       a =  0.150      CL =  0.2124
      Cm = -0.0597     CD =  0.02736   =>   CDf =  0.00719    CDp =  0.02018
 plradd ia,ip,cpol            3          80  0.25820407    

 Point added to stored polar  1
 Save file unspecified or not available
 Dump file unspecified or not available

.OPERva   c>  
.OPERva   c>  
.OPERva   c>   Calculating wake trajectory ...
 Calculating source influence matrix ...

 Solving BL system ...

 Side 1  free  transition at x/c =  0.7808   67
 Side 2  free  transition at x/c =  0.8263   69

   1   rms: 0.1195E-01   max: -.3642E-01   T at   69  2
       a =  0.200      CL =  0.2217
      Cm = -0.0602     CD =  0.02725   =>   CDf =  0.00719    CDp =  0.02006

 Side 1  free  transition at x/c =  0.7803   67
 Side 2  free  transition at x/c =  0.8281   69

   2   rms: 0.3701E-02   max: -.4895E-01   D at    4  1
       a =  0.200      CL =  0.2220
      Cm = -0.0602     CD =  0.02726   =>   CDf =  0.00720    CDp =  0.02006

 Side 1  free  transition at x/c =  0.7804   67
 Side 2  free  transition at x/c =  0.8282   69

   3   rms: 0.4459E-04   max: 0.5755E-03   D at    8  1
       a =  0.200      CL =  0.2220
      Cm = -0.0602     CD =  0.02726   =>   CDf =  0.00720    CDp =  0.02005
 plradd ia,ip,cpol            4          80  0.25820407    

 Point added to stored polar  1
 Save file unspecified or not available
 Dump file unspecified or not available

.OPERva   c>  
.OPERva   c>  
.OPERva   c>   Calculating wake trajectory ...
 Calculating source influence matrix ...

 Solving BL system ...

 Side 1  free  transition at x/c =  0.7804   67
 Side 2  free  transition at x/c =  0.8282   69

   1   rms: 0.1336E-01   max: -.1117E+00   D at    4  1
       a =  0.250      CL =  0.2320
      Cm = -0.0609     CD =  0.02714   =>   CDf =  0.00720    CDp =  0.01993

 Side 1  free  transition at x/c =  0.7799   67
 Side 2  free  transition at x/c =  0.8301   69

   2   rms: 0.6334E-03   max: -.4614E-02   D at   72  2
       a =  0.250      CL =  0.2324
      Cm = -0.0610     CD =  0.02715   =>   CDf =  0.00722    CDp =  0.01992

 Side 1  free  transition at x/c =  0.7799   67
 Side 2  free  transition at x/c =  0.8301   69

   3   rms: 0.8634E-05   max: 0.8313E-04   D at   83  2
       a =  0.250      CL =  0.2324
      Cm = -0.0610     CD =  0.02714   =>   CDf =  0.00722    CDp =  0.01992
 plradd ia,ip,cpol            5          80  0.25820407    

 Point added to stored polar  1
 Save file unspecified or not available
 Dump file unspecified or not available

.OPERva   c>  
.OPERva   c>  
.OPERva   c>   Calculating wake trajectory ...
 Calculating source influence matrix ...

 Solving BL system ...

 Side 1  free  transition at x/c =  0.7799   67
 Side 2  free  transition at x/c =  0.8301   69

   1   rms: 0.1242E-01   max: -.3913E-01   T at   69  2
       a =  0.300      CL =  0.2431
      Cm = -0.0619     CD =  0.02702   =>   CDf =  0.00722    CDp =  0.01980

 Side 1  free  transition at x/c =  0.7795   67
 Side 2  free  transition at x/c =  0.8320   69

   2   rms: 0.4745E-03   max: -.3249E-02   D at   72  2
       a =  0.300      CL =  0.2435
      Cm = -0.0619     CD =  0.02703   =>   CDf =  0.00724    CDp =  0.01979

 Side 1  free  transition at x/c =  0.7796   67
 Side 2  free  transition at x/c =  0.8321   69

   3   rms: 0.6474E-05   max: 0.5531E-04   D at   83  2
       a =  0.300      CL =  0.2435
      Cm = -0.0619     CD =  0.02703   =>   CDf =  0.00725    CDp =  0.01979
 plradd ia,ip,cpol            6          80  0.25820407    

 Point added to stored polar  1
 Save file unspecified or not available
 Dump file unspecified or not available

.OPERva   c>  
.OPERva   c>  
.OPERva   c>   Calculating wake trajectory ...
 Calculating source influence matrix ...

 Solving BL system ...

 Side 1  free  transition at x/c =  0.7796   67
 Side 2  free  transition at x/c =  0.8321   69

   1   rms: 0.1260E-01   max: -.4540E-01   T at   69  2
       a =  0.350      CL =  0.2546
      Cm = -0.0629     CD =  0.02692   =>   CDf =  0.00725    CDp =  0.01967

 Side 1  free  transition at x/c =  0.7792   67
 Side 2  free  transition at x/c =  0.8341   70

   2   rms: 0.2360E-02   max: -.3714E-01   D at   69  2
       a =  0.350      CL =  0.2544
      Cm = -0.0629     CD =  0.02693   =>   CDf =  0.00727    CDp =  0.01966

 Side 1  free  transition at x/c =  0.7792   67
 Side 2  free  transition at x/c =  0.8340   70

   3   rms: 0.1025E-03   max: 0.9717E-03   D at   72  2
       a =  0.350      CL =  0.2544
      Cm = -0.0629     CD =  0.02692   =>   CDf =  0.00727    CDp =  0.01966

 Side 1  free  transition at x/c =  0.7792   67
 Side 2  free  transition at x/c =  0.8340   70

   4   rms: 0.1770E-05   max: -.1561E-04   D at   83  2
       a =  0.350      CL =  0.2544
      Cm = -0.0629     CD =  0.02692   =>   CDf =  0.00727    CDp =  0.01966
 plradd ia,ip,cpol            7          80  0.25820407    

 Point added to stored polar  1
 Save file unspecified or not available
 Dump file unspecified or not available

.OPERva   c>  
.OPERva   c>  
.OPERva   c>   Calculating wake trajectory ...
 Calculating source influence matrix ...

 Solving BL system ...

 Side 1  free  transition at x/c =  0.7792   67
 Side 2  free  transition at x/c =  0.8340   70

   1   rms: 0.1143E-01   max: -.3801E-01   T at   70  2
       a =  0.400      CL =  0.2633
      Cm = -0.0632     CD =  0.02678   =>   CDf =  0.00727    CDp =  0.01951

 Side 1  free  transition at x/c =  0.7789   67
 Side 2  free  transition at x/c =  0.8353   70

   2   rms: 0.3026E-03   max: -.2314E-02   D at   71  2
       a =  0.400      CL =  0.2633
      Cm = -0.0632     CD =  0.02680   =>   CDf =  0.00727    CDp =  0.01953

 Side 1  free  transition at x/c =  0.7788   67
 Side 2  free  transition at x/c =  0.8353   70

   3   rms: 0.6808E-05   max: -.4909E-04   D at   73  2
       a =  0.400      CL =  0.2633
      Cm = -0.0632     CD =  0.02680   =>   CDf =  0.00727    CDp =  0.01953
 plradd ia,ip,cpol            8          80  0.25820407    

 Point added to stored polar  1
 Save file unspecified or not available
 Dump file unspecified or not available

.OPERva   c>  
.OPERva   c>  
.OPERva   c>   Calculating wake trajectory ...
 Calculating source influence matrix ...

 Solving BL system ...

 Side 1  free  transition at x/c =  0.7788   67
 Side 2  free  transition at x/c =  0.8353   70

   1   rms: 0.1174E-01   max: -.3622E-01   T at   70  2
       a =  0.450      CL =  0.2720
      Cm = -0.0635     CD =  0.02667   =>   CDf =  0.00727    CDp =  0.01940

 Side 1  free  transition at x/c =  0.7785   66
 Side 2  free  transition at x/c =  0.8366   70

   2   rms: 0.6122E-02   max: -.3975E-01   T at   66  1
       a =  0.450      CL =  0.2782
      Cm = -0.0644     CD =  0.02652   =>   CDf =  0.00728    CDp =  0.01923

 Side 1  free  transition at x/c =  0.7799   67
 Side 2  free  transition at x/c =  0.8366   70

   3   rms: 0.1611E-01   max: 0.7005E-01   D at   71  1
       a =  0.450      CL =  0.2718
      Cm = -0.0635     CD =  0.02671   =>   CDf =  0.00729    CDp =  0.01942

 Side 1  free  transition at x/c =  0.7784   66
 Side 2  free  transition at x/c =  0.8366   70

   4   rms: 0.6562E-02   max: -.4212E-01   T at   66  1
       a =  0.450      CL =  0.2783
      Cm = -0.0644     CD =  0.02652   =>   CDf =  0.00728    CDp =  0.01923

 Side 1  free  transition at x/c =  0.7799   67
 Side 2  free  transition at x/c =  0.8366   70

   5   rms: 0.1627E-01   max: 0.7071E-01   D at   71  1
       a =  0.450      CL =  0.2718
      Cm = -0.0635     CD =  0.02671   =>   CDf =  0.00729    CDp =  0.01942

 Side 1  free  transition at x/c =  0.7784   66
 Side 2  free  transition at x/c =  0.8366   70

   6   rms: 0.6577E-02   max: -.4219E-01   T at   66  1
       a =  0.450      CL =  0.2783
      Cm = -0.0644     CD =  0.02652   =>   CDf =  0.00728    CDp =  0.01923

 Side 1  free  transition at x/c =  0.7799   67
 Side 2  free  transition at x/c =  0.8366   70

   7   rms: 0.1628E-01   max: 0.7075E-01   D at   71  1
       a =  0.450      CL =  0.2718
      Cm = -0.0635     CD =  0.02671   =>   CDf =  0.00729    CDp =  0.01942

 Side 1  free  transition at x/c =  0.7784   66
 Side 2  free  transition at x/c =  0.8366   70

   8   rms: 0.6579E-02   max: -.4219E-01   T at   66  1
       a =  0.450      CL =  0.2783
      Cm = -0.0644     CD =  0.02652   =>   CDf =  0.00728    CDp =  0.01923

 Side 1  free  transition at x/c =  0.7799   67
 Side 2  free  transition at x/c =  0.8366   70

   9   rms: 0.1628E-01   max: 0.7076E-01   D at   71  1
       a =  0.450      CL =  0.2718
      Cm = -0.0635     CD =  0.02671   =>   CDf =  0.00729    CDp =  0.01942

 Side 1  free  transition at x/c =  0.7784   66
 Side 2  free  transition at x/c =  0.8366   70

  10   rms: 0.6580E-02   max: -.4219E-01   T at   66  1
       a =  0.450      CL =  0.2783
      Cm = -0.0644     CD =  0.02652   =>   CDf =  0.00728    CDp =  0.01923
 VISCAL:  Convergence failed

.OPERva   c>  
.OPERva   c>  
.OPERva   c>   Calculating wake trajectory ...
 Calculating source influence matrix ...

 Solving BL system ...

 Side 1  free  transition at x/c =  0.7799   67
 Side 2  free  transition at x/c =  0.8366   70

   1   rms: 0.1638E-01   max: 0.7937E-01   T at   67  1
       a =  0.500      CL =  0.2801
      Cm = -0.0638     CD =  0.02659   =>   CDf =  0.00729    CDp =  0.01929

 Side 1  free  transition at x/c =  0.7780   66
 Side 2  free  transition at x/c =  0.8381   70

   2   rms: 0.1629E-01   max: -.1023E+00   T at   66  1
       a =  0.500      CL =  0.2961
      Cm = -0.0660     CD =  0.02614   =>   CDf =  0.00729    CDp =  0.01885

 Side 1  free  transition at x/c =  0.7820   67
 Side 2  free  transition at x/c =  0.8379   70

   3   rms: 0.3957E-01   max: 0.1754E+00   D at   71  1
       a =  0.500      CL =  0.2786
      Cm = -0.0635     CD =  0.02665   =>   CDf =  0.00732    CDp =  0.01933

 Side 1  free  transition at x/c =  0.7777   66
 Side 2  free  transition at x/c =  0.8381   70

   4   rms: 0.1903E-01   max: -.1159E+00   T at   66  1
       a =  0.500      CL =  0.2970
      Cm = -0.0662     CD =  0.02611   =>   CDf =  0.00729    CDp =  0.01883

 Side 1  free  transition at x/c =  0.7823   67
 Side 2  free  transition at x/c =  0.8379   70

   5   rms: 0.4199E-01   max: 0.1869E+00   D at   71  1
       a =  0.500      CL =  0.2783
      Cm = -0.0635     CD =  0.02666   =>   CDf =  0.00732    CDp =  0.01933

 Side 1  free  transition at x/c =  0.7776   66
 Side 2  free  transition at x/c =  0.8381   70

   6   rms: 0.1951E-01   max: -.1183E+00   T at   66  1
       a =  0.500      CL =  0.2972
      Cm = -0.0662     CD =  0.02611   =>   CDf =  0.00729    CDp =  0.01882

 Side 1  free  transition at x/c =  0.7823   67
 Side 2  free  transition at x/c =  0.8379   70

   7   rms: 0.4245E-01   max: 0.1891E+00   D at   71  1
       a =  0.500      CL =  0.2783
      Cm = -0.0635     CD =  0.02666   =>   CDf =  0.00732    CDp =  0.01934

 Side 1  free  transition at x/c =  0.7776   66
 Side 2  free  transition at x/c =  0.8381   70

   8   rms: 0.1960E-01   max: -.1188E+00   T at   66  1
       a =  0.500      CL =  0.2972
      Cm = -0.0662     CD =  0.02611   =>   CDf =  0.00729    CDp =  0.01882

 Side 1  free  transition at x/c =  0.7823   67
 Side 2  free  transition at x/c =  0.8379   70

   9   rms: 0.4253E-01   max: 0.1895E+00   D at   71  1
       a =  0.500      CL =  0.2783
      Cm = -0.0635     CD =  0.02666   =>   CDf =  0.00732    CDp =  0.01934

 Side 1  free  transition at x/c =  0.7776   66
 Side 2  free  transition at x/c =  0.8381   70

  10   rms: 0.1962E-01   max: -.1188E+00   T at   66  1
       a =  0.500      CL =  0.2972
      Cm = -0.0662     CD =  0.02611   =>   CDf =  0.00729    CDp =  0.01882
 VISCAL:  Convergence failed

.OPERva   c>  
.OPERva   c>  
.OPERva   c>   Calculating wake trajectory ...
 Calculating source influence matrix ...

 Solving BL system ...

 Side 1  free  transition at x/c =  0.7823   67
 Side 2  free  transition at x/c =  0.8379   70

   1   rms: 0.3914E-01   max: 0.1746E+00   D at   71  1
       a =  0.550      CL =  0.2867
      Cm = -0.0638     CD =  0.02654   =>   CDf =  0.00732    CDp =  0.01922

 Side 1  free  transition at x/c =  0.7771   66
 Side 2  free  transition at x/c =  0.8396   70

   2   rms: 0.3370E-01   max: -.2015E+00   T at   66  1
       a =  0.550      CL =  0.3190
      Cm = -0.0684     CD =  0.02563   =>   CDf =  0.00726    CDp =  0.01837

 Side 1  free  transition at x/c =  0.7856   68
 Side 2  free  transition at x/c =  0.8391   69
 idif Ue xi dudx           1  0.16650288      2.28130817E-03   72.985703    
 Uenew xinew           2  2.74764113E-02  3.76462936E-04

   3   rms: 0.1123E+00   max: 0.1482E+01   D at    2  1   RLX: 0.815
       a =  0.550      CL =  0.2913
      Cm = -0.0649     CD =  0.02594   =>   CDf =  0.00741    CDp =  0.01853

 Side 1  free  transition at x/c =  0.7779   66
 Side 2  free  transition at x/c =  0.8397   70

   4   rms: 0.2960E-01   max: -.1729E+00   T at    2  2
       a =  0.550      CL =  0.3153
      Cm = -0.0679     CD =  0.02575   =>   CDf =  0.00730    CDp =  0.01844

 Side 1  free  transition at x/c =  0.7844   67
 Side 2  free  transition at x/c =  0.8392   70

   5   rms: 0.6544E-01   max: 0.3002E+00   D at   71  1
       a =  0.550      CL =  0.2854
      Cm = -0.0637     CD =  0.02658   =>   CDf =  0.00735    CDp =  0.01923

 Side 1  free  transition at x/c =  0.7768   66
 Side 2  free  transition at x/c =  0.8397   70

   6   rms: 0.3799E-01   max: -.2225E+00   T at   66  1
       a =  0.550      CL =  0.3212
      Cm = -0.0687     CD =  0.02558   =>   CDf =  0.00726    CDp =  0.01832

 Side 1  free  transition at x/c =  0.7863   68
 Side 2  free  transition at x/c =  0.8391   69
 idif Ue xi dudx           1  0.17464985      2.40111351E-03   72.737022    
 Uenew xinew           2  3.60970758E-02  4.96268272E-04

   7   rms: 0.8881E-01   max: 0.6325E+00   D at    2  1
       a =  0.550      CL =  0.2829
      Cm = -0.0633     CD =  0.02663   =>   CDf =  0.00741    CDp =  0.01921

 Side 1  free  transition at x/c =  0.7764   66
 Side 2  free  transition at x/c =  0.8398   70

   8   rms: 0.4482E-01   max: -.2510E+00   T at   66  1
       a =  0.550      CL =  0.3241
      Cm = -0.0691     CD =  0.02550   =>   CDf =  0.00726    CDp =  0.01824

 Side 1  free  transition at x/c =  0.7873   68
 Side 2  free  transition at x/c =  0.8391   69
 idif Ue xi dudx           1  0.17593649      2.41839886E-03   72.749161    
 Uenew xinew           2  3.73605937E-02  5.13553619E-04

   9   rms: 0.9235E-01   max: 0.4186E+00   D at   72  1
       a =  0.550      CL =  0.2817
      Cm = -0.0631     CD =  0.02665   =>   CDf =  0.00742    CDp =  0.01923

 Side 1  free  transition at x/c =  0.7762   66
 Side 2  free  transition at x/c =  0.8399   70

  10   rms: 0.4720E-01   max: -.2629E+00   T at   66  1
       a =  0.550      CL =  0.3255
      Cm = -0.0693     CD =  0.02546   =>   CDf =  0.00726    CDp =  0.01821
 VISCAL:  Convergence failed

.OPERva   c>  
.OPERva   c>  
.OPERva   c>   Calculating wake trajectory ...
 Calculating source influence matrix ...

 Solving BL system ...

 Side 1  free  transition at x/c =  0.7877   68
 Side 2  free  transition at x/c =  0.8390   69
 idif Ue xi dudx           1  0.16249442      2.21467018E-03   73.371841    
 Uenew xinew           2  2.27324273E-02  3.09824944E-04

   1   rms: 0.9014E-01   max: 0.4236E+00   D at   72  1
       a =  0.600      CL =  0.2888
      Cm = -0.0633     CD =  0.02658   =>   CDf =  0.00742    CDp =  0.01915

 Side 1  free  transition at x/c =  0.7753   66
 Side 2  free  transition at x/c =  0.8414   70

   2   rms: 0.7904E-01   max: -.4338E+00   T at   66  1
       a =  0.600      CL =  0.3611
      Cm = -0.0735     CD =  0.02461   =>   CDf =  0.00726    CDp =  0.01735

 Side 1  free  transition at x/c =  0.7954   68
 Side 2  free  transition at x/c =  0.8400   69

   3   rms: 0.1800E+00   max: -.9093E+00   T at   68  1   RLX: 0.550
       a =  0.600      CL =  0.4571
      Cm = -0.0896     CD =  0.02099   =>   CDf =  0.00743    CDp =  0.01356

 MRCHDU: Convergence failed at  70  side 1    Res =  0.5999E+01
 MRCHDU: Convergence failed at  71  side 1    Res =  0.4817E+01
 MRCHDU: Convergence failed at  72  side 1    Res =  0.5341E+02
 MRCHDU: Convergence failed at  73  side 1    Res =  0.1555E+02
 MRCHDU: Convergence failed at  74  side 1    Res =  0.9121E+01
 MRCHDU: Convergence failed at  75  side 1    Res =  0.7469E+01
 MRCHDU: Convergence failed at  76  side 1    Res =  0.1196E+02
 MRCHDU: Convergence failed at  77  side 1    Res =  0.1452E+02
 MRCHDU: Convergence failed at  78  side 1    Res =  0.1589E+02
 MRCHDU: Convergence failed at  79  side 1    Res =  0.1217E+02
 MRCHDU: Convergence failed at  80  side 1    Res =  0.1054E+02
 MRCHDU: Convergence failed at  81  side 1    Res =  0.1113E+02
 MRCHDU: Convergence failed at  82  side 1    Res =  0.1989E+02
 Side 1  free  transition at x/c =  0.8224   70
 Side 2  free  transition at x/c =  0.8380   69
 idif Ue xi dudx           1  0.17127618      2.29918957E-03   74.494156    
 Uenew xinew           2  2.93763485E-02  3.94344330E-04

   4   rms: 0.4696E+00   max: 0.2328E+01   C at   70  1   RLX: 0.616
       a =  0.600      CL =  0.3204
      Cm = -0.0861     CD =  0.01384   =>   CDf =  0.00746    CDp =  0.00638

 Side 1  free  transition at x/c =  0.7804   67
 Side 2  free  transition at x/c =  0.8455   70

   5   rms: 0.8583E-01   max: 0.4762E+00   T at   67  1
       a =  0.600      CL =  0.2431
      Cm = -0.0569     CD =  0.02800   =>   CDf =  0.00730    CDp =  0.02071

 Side 1  free  transition at x/c =  0.7677   66
 Side 2  free  transition at x/c =  0.8441   70

   6   rms: 0.1799E-01   max: -.2128E+00   D at   66  1
       a =  0.600      CL =  0.2361
      Cm = -0.0561     CD =  0.02789   =>   CDf =  0.00726    CDp =  0.02063

 Side 1  free  transition at x/c =  0.7626   66
 Side 2  free  transition at x/c =  0.8425   70

   7   rms: 0.2231E-01   max: -.1048E+00   T at   66  1
       a =  0.600      CL =  0.2466
      Cm = -0.0574     CD =  0.02744   =>   CDf =  0.00722    CDp =  0.02022

 Side 1  free  transition at x/c =  0.7653   66
 Side 2  free  transition at x/c =  0.8424   70

   8   rms: 0.5442E-02   max: -.2133E-01   D at   73  1
       a =  0.600      CL =  0.2499
      Cm = -0.0579     CD =  0.02743   =>   CDf =  0.00724    CDp =  0.02019

 Side 1  free  transition at x/c =  0.7660   66
 Side 2  free  transition at x/c =  0.8422   70

   9   rms: 0.2891E-03   max: 0.1351E-02   D at   73  2
       a =  0.600      CL =  0.2501
      Cm = -0.0579     CD =  0.02744   =>   CDf =  0.00724    CDp =  0.02020

 Side 1  free  transition at x/c =  0.7660   66
 Side 2  free  transition at x/c =  0.8422   70

  10   rms: 0.6970E-05   max: 0.4921E-04   D at   73  2
       a =  0.600      CL =  0.2501
      Cm = -0.0579     CD =  0.02744   =>   CDf =  0.00724    CDp =  0.02020
 plradd ia,ip,cpol            9          80  0.25820407    

 Point added to stored polar  1
 Save file unspecified or not available
 Dump file unspecified or not available

.OPERva   c>  
.OPERva   c>  
.OPERva   c>   Calculating wake trajectory ...
 Calculating source influence matrix ...

 Solving BL system ...

 Side 1  free  transition at x/c =  0.7660   66
 Side 2  free  transition at x/c =  0.8422   70

   1   rms: 0.1320E-01   max: -.9351E-01   D at    3  2
       a =  0.650      CL =  0.2590
      Cm = -0.0584     CD =  0.02731   =>   CDf =  0.00724    CDp =  0.02007

 Side 1  free  transition at x/c =  0.7654   66
 Side 2  free  transition at x/c =  0.8440   70

   2   rms: 0.5503E-03   max: -.2571E-02   D at   72  2
       a =  0.650      CL =  0.2594
      Cm = -0.0584     CD =  0.02732   =>   CDf =  0.00725    CDp =  0.02007

 Side 1  free  transition at x/c =  0.7654   66
 Side 2  free  transition at x/c =  0.8440   70

   3   rms: 0.9868E-05   max: 0.7808E-04   D at   73  2
       a =  0.650      CL =  0.2594
      Cm = -0.0584     CD =  0.02732   =>   CDf =  0.00725    CDp =  0.02007
 plradd ia,ip,cpol           10          80  0.25820407    

 Point added to stored polar  1
 Save file unspecified or not available
 Dump file unspecified or not available

.OPERva   c>  
.OPERva   c>  
.OPERva   c>   Calculating wake trajectory ...
 Calculating source influence matrix ...

 Solving BL system ...

 Side 1  free  transition at x/c =  0.7654   66
 Side 2  free  transition at x/c =  0.8440   70

   1   rms: 0.1283E-01   max: 0.9256E-01   D at    3  2
       a =  0.700      CL =  0.2687
      Cm = -0.0590     CD =  0.02721   =>   CDf =  0.00725    CDp =  0.01995

 Side 1  free  transition at x/c =  0.7648   66
 Side 2  free  transition at x/c =  0.8457   70

   2   rms: 0.4004E-03   max: -.1969E-02   D at   73  2
       a =  0.700      CL =  0.2690
      Cm = -0.0590     CD =  0.02721   =>   CDf =  0.00727    CDp =  0.01994

 Side 1  free  transition at x/c =  0.7649   66
 Side 2  free  transition at x/c =  0.8457   70

   3   rms: 0.6226E-05   max: 0.4310E-04   D at   73  2
       a =  0.700      CL =  0.2690
      Cm = -0.0590     CD =  0.02721   =>   CDf =  0.00727    CDp =  0.01994
 plradd ia,ip,cpol           11          80  0.25820407    

 Point added to stored polar  1
 Save file unspecified or not available
 Dump file unspecified or not available

.OPERva   c>  
.OPERva   c>  
.OPERva   c>   Calculating wake trajectory ...
 Calculating source influence matrix ...

 Solving BL system ...

 Side 1  free  transition at x/c =  0.7649   66
 Side 2  free  transition at x/c =  0.8457   70

   1   rms: 0.1124E-01   max: -.3131E-01   T at   70  2
       a =  0.750      CL =  0.2790
      Cm = -0.0597     CD =  0.02709   =>   CDf =  0.00727    CDp =  0.01982

 Side 1  free  transition at x/c =  0.7644   66
 Side 2  free  transition at x/c =  0.8474   70

   2   rms: 0.3566E-03   max: -.1774E-02   D at   73  2
       a =  0.750      CL =  0.2793
      Cm = -0.0598     CD =  0.02709   =>   CDf =  0.00728    CDp =  0.01981

 Side 1  free  transition at x/c =  0.7644   66
 Side 2  free  transition at x/c =  0.8474   70

   3   rms: 0.5320E-05   max: 0.4174E-04   D at   73  2
       a =  0.750      CL =  0.2793
      Cm = -0.0598     CD =  0.02709   =>   CDf =  0.00728    CDp =  0.01981
 plradd ia,ip,cpol           12          80  0.25820407    

 Point added to stored polar  1
 Save file unspecified or not available
 Dump file unspecified or not available

.OPERva   c>  
.OPERva   c>  
.OPERva   c>   Calculating wake trajectory ...
 Calculating source influence matrix ...

 Solving BL system ...

 Side 1  free  transition at x/c =  0.7644   66
 Side 2  free  transition at x/c =  0.8474   70

   1   rms: 0.1224E-01   max: -.3448E-01   T at   70  2
       a =  0.800      CL =  0.2899
      Cm = -0.0606     CD =  0.02697   =>   CDf =  0.00729    CDp =  0.01968

 Side 1  free  transition at x/c =  0.7639   66
 Side 2  free  transition at x/c =  0.8491   70

   2   rms: 0.3602E-03   max: -.2151E-02   D at   73  2
       a =  0.800      CL =  0.2902
      Cm = -0.0607     CD =  0.02698   =>   CDf =  0.00730    CDp =  0.01967

 Side 1  free  transition at x/c =  0.7639   66
 Side 2  free  transition at x/c =  0.8491   70

   3   rms: 0.6300E-05   max: 0.3554E-04   D at   73  2
       a =  0.800      CL =  0.2902
      Cm = -0.0607     CD =  0.02698   =>   CDf =  0.00730    CDp =  0.01967
 plradd ia,ip,cpol           13          80  0.25820407    

 Point added to stored polar  1
 Save file unspecified or not available
 Dump file unspecified or not available

.OPERva   c>  
.OPERva   c>  
.OPERva   c>   Calculating wake trajectory ...
 Calculating source influence matrix ...

 Solving BL system ...

 Side 1  free  transition at x/c =  0.7639   66
 Side 2  free  transition at x/c =  0.8491   70

   1   rms: 0.1303E-01   max: -.3843E-01   T at   70  2
       a =  0.850      CL =  0.3015
      Cm = -0.0617     CD =  0.02684   =>   CDf =  0.00726    CDp =  0.01958

 Side 1  free  transition at x/c =  0.7635   67
 Side 2  free  transition at x/c =  0.8509   70

   2   rms: 0.3049E-02   max: -.4142E-01   D at   69  2
       a =  0.850      CL =  0.3005
      Cm = -0.0614     CD =  0.02684   =>   CDf =  0.00733    CDp =  0.01951

 Side 1  free  transition at x/c =  0.7635   67
 Side 2  free  transition at x/c =  0.8506   70

   3   rms: 0.9066E-03   max: 0.1180E-01   D at    4  1
       a =  0.850      CL =  0.3004
      Cm = -0.0614     CD =  0.02684   =>   CDf =  0.00732    CDp =  0.01952

 Side 1  free  transition at x/c =  0.7635   67
 Side 2  free  transition at x/c =  0.8506   70

   4   rms: 0.2639E-05   max: -.2111E-04   D at    4  1
       a =  0.850      CL =  0.3004
      Cm = -0.0614     CD =  0.02684   =>   CDf =  0.00732    CDp =  0.01952
 plradd ia,ip,cpol           14          81  0.25820407    

 Point added to stored polar  1
 Save file unspecified or not available
 Dump file unspecified or not available

.OPERva   c>  
.OPERva   c>  
.OPERva   c>   Calculating wake trajectory ...
 Calculating source influence matrix ...

 Solving BL system ...

 Side 1  free  transition at x/c =  0.7635   67
 Side 2  free  transition at x/c =  0.8506   70

   1   rms: 0.1152E-01   max: -.3382E-01   T at   70  2
       a =  0.900      CL =  0.3094
      Cm = -0.0617     CD =  0.02670   =>   CDf =  0.00732    CDp =  0.01938

 Side 1  free  transition at x/c =  0.7631   67
 Side 2  free  transition at x/c =  0.8519   70

   2   rms: 0.3052E-03   max: -.2253E-02   D at   71  2
       a =  0.900      CL =  0.3095
      Cm = -0.0618     CD =  0.02671   =>   CDf =  0.00733    CDp =  0.01939

 Side 1  free  transition at x/c =  0.7631   67
 Side 2  free  transition at x/c =  0.8519   70

   3   rms: 0.4994E-05   max: 0.3682E-04   D at   82  2
       a =  0.900      CL =  0.3095
      Cm = -0.0618     CD =  0.02671   =>   CDf =  0.00733    CDp =  0.01938
 plradd ia,ip,cpol           15          81  0.25820407    

 Point added to stored polar  1
 Save file unspecified or not available
 Dump file unspecified or not available

.OPERva   c>  
.OPERva   c>  
.OPERva   c>   Calculating wake trajectory ...
 Calculating source influence matrix ...

 Solving BL system ...

 Side 1  free  transition at x/c =  0.7631   67
 Side 2  free  transition at x/c =  0.8519   70

   1   rms: 0.1122E-01   max: -.3245E-01   T at   70  2
       a =  0.950      CL =  0.3188
      Cm = -0.0622     CD =  0.02656   =>   CDf =  0.00733    CDp =  0.01923

 Side 1  free  transition at x/c =  0.7627   67
 Side 2  free  transition at x/c =  0.8532   70

   2   rms: 0.1684E-03   max: -.1674E-02   D at   71  2
       a =  0.950      CL =  0.3188
      Cm = -0.0622     CD =  0.02657   =>   CDf =  0.00733    CDp =  0.01924

 Side 1  free  transition at x/c =  0.7627   67
 Side 2  free  transition at x/c =  0.8532   70

   3   rms: 0.3272E-05   max: 0.2587E-04   D at   82  2
       a =  0.950      CL =  0.3188
      Cm = -0.0622     CD =  0.02657   =>   CDf =  0.00733    CDp =  0.01924
 plradd ia,ip,cpol           16          81  0.25820407    

 Point added to stored polar  1
 Save file unspecified or not available
 Dump file unspecified or not available

.OPERva   c>  
.OPERva   c>  
.OPERva   c>   Calculating wake trajectory ...
 Calculating source influence matrix ...

 Solving BL system ...

 Side 1  free  transition at x/c =  0.7627   67
 Side 2  free  transition at x/c =  0.8532   70

   1   rms: 0.1135E-01   max: -.3094E-01   T at   70  2
       a =  1.000      CL =  0.3279
      Cm = -0.0626     CD =  0.02643   =>   CDf =  0.00733    CDp =  0.01909

 Side 1  free  transition at x/c =  0.7623   67
 Side 2  free  transition at x/c =  0.8546   70

   2   rms: 0.5478E-03   max: 0.2798E-02   D at   72  1
       a =  1.000      CL =  0.3277
      Cm = -0.0626     CD =  0.02645   =>   CDf =  0.00734    CDp =  0.01911

 Side 1  free  transition at x/c =  0.7622   67
 Side 2  free  transition at x/c =  0.8547   70

   3   rms: 0.1145E-04   max: -.9158E-04   D at   73  2
       a =  1.000      CL =  0.3277
      Cm = -0.0626     CD =  0.02645   =>   CDf =  0.00734    CDp =  0.01911
 plradd ia,ip,cpol           17          81  0.25820407    

 Point added to stored polar  1
 Save file unspecified or not available
 Dump file unspecified or not available

.OPERva   c>  
.OPERva   c>  
.OPERva   c>   Calculating wake trajectory ...
 Calculating source influence matrix ...

 Solving BL system ...

 Side 1  free  transition at x/c =  0.7622   67
 Side 2  free  transition at x/c =  0.8547   70

   1   rms: 0.1285E-01   max: -.1003E+00   D at    3  2
       a =  1.050      CL =  0.3369
      Cm = -0.0630     CD =  0.02631   =>   CDf =  0.00734    CDp =  0.01897

 Side 1  free  transition at x/c =  0.7618   66
 Side 2  free  transition at x/c =  0.8560   70

   2   rms: 0.3561E-02   max: -.2190E-01   T at   66  1
       a =  1.050      CL =  0.3405
      Cm = -0.0635     CD =  0.02622   =>   CDf =  0.00735    CDp =  0.01887

 Side 1  free  transition at x/c =  0.7626   67
 Side 2  free  transition at x/c =  0.8559   70

   3   rms: 0.9599E-02   max: 0.4057E-01   D at   71  1
       a =  1.050      CL =  0.3370
      Cm = -0.0630     CD =  0.02634   =>   CDf =  0.00736    CDp =  0.01898

 Side 1  free  transition at x/c =  0.7618   66
 Side 2  free  transition at x/c =  0.8560   70

   4   rms: 0.3565E-02   max: -.2243E-01   T at   66  1
       a =  1.050      CL =  0.3405
      Cm = -0.0635     CD =  0.02622   =>   CDf =  0.00735    CDp =  0.01887

 Side 1  free  transition at x/c =  0.7626   67
 Side 2  free  transition at x/c =  0.8559   70

   5   rms: 0.9626E-02   max: 0.4070E-01   D at   71  1
       a =  1.050      CL =  0.3370
      Cm = -0.0630     CD =  0.02634   =>   CDf =  0.00736    CDp =  0.01898

 Side 1  free  transition at x/c =  0.7618   66
 Side 2  free  transition at x/c =  0.8560   70

   6   rms: 0.3565E-02   max: -.2243E-01   T at   66  1
       a =  1.050      CL =  0.3405
      Cm = -0.0635     CD =  0.02622   =>   CDf =  0.00735    CDp =  0.01887

 Side 1  free  transition at x/c =  0.7626   67
 Side 2  free  transition at x/c =  0.8559   70

   7   rms: 0.9629E-02   max: 0.4071E-01   D at   71  1
       a =  1.050      CL =  0.3370
      Cm = -0.0630     CD =  0.02634   =>   CDf =  0.00736    CDp =  0.01898

 Side 1  free  transition at x/c =  0.7618   66
 Side 2  free  transition at x/c =  0.8560   70

   8   rms: 0.3565E-02   max: -.2243E-01   T at   66  1
       a =  1.050      CL =  0.3405
      Cm = -0.0635     CD =  0.02622   =>   CDf =  0.00735    CDp =  0.01887

 Side 1  free  transition at x/c =  0.7626   67
 Side 2  free  transition at x/c =  0.8559   70

   9   rms: 0.9630E-02   max: 0.4072E-01   D at   71  1
       a =  1.050      CL =  0.3370
      Cm = -0.0630     CD =  0.02634   =>   CDf =  0.00736    CDp =  0.01898

 Side 1  free  transition at x/c =  0.7618   66
 Side 2  free  transition at x/c =  0.8560   70

  10   rms: 0.3566E-02   max: -.2244E-01   T at   66  1
       a =  1.050      CL =  0.3405
      Cm = -0.0635     CD =  0.02622   =>   CDf =  0.00735    CDp =  0.01887
 VISCAL:  Convergence failed

.OPERva   c>  
.OPERva   c>  
.OPERva   c>   Calculating wake trajectory ...
 Calculating source influence matrix ...

 Solving BL system ...

 Side 1  free  transition at x/c =  0.7626   67
 Side 2  free  transition at x/c =  0.8559   70

   1   rms: 0.1298E-01   max: 0.9940E-01   D at    3  2
       a =  1.100      CL =  0.3462
      Cm = -0.0635     CD =  0.02621   =>   CDf =  0.00736    CDp =  0.01885

 Side 1  free  transition at x/c =  0.7614   66
 Side 2  free  transition at x/c =  0.8574   70

   2   rms: 0.1282E-01   max: -.7834E-01   T at   66  1
       a =  1.100      CL =  0.3586
      Cm = -0.0652     CD =  0.02583   =>   CDf =  0.00736    CDp =  0.01847

 Side 1  free  transition at x/c =  0.7645   67
 Side 2  free  transition at x/c =  0.8571   70

   3   rms: 0.3150E-01   max: 0.1372E+00   D at   71  1
       a =  1.100      CL =  0.3453
      Cm = -0.0634     CD =  0.02625   =>   CDf =  0.00738    CDp =  0.01887

 Side 1  free  transition at x/c =  0.7612   66
 Side 2  free  transition at x/c =  0.8574   70

   4   rms: 0.1448E-01   max: -.8671E-01   T at   66  1
       a =  1.100      CL =  0.3590
      Cm = -0.0653     CD =  0.02582   =>   CDf =  0.00736    CDp =  0.01846

 Side 1  free  transition at x/c =  0.7646   67
 Side 2  free  transition at x/c =  0.8571   70

   5   rms: 0.3270E-01   max: 0.1428E+00   D at   71  1
       a =  1.100      CL =  0.3452
      Cm = -0.0634     CD =  0.02626   =>   CDf =  0.00738    CDp =  0.01887

 Side 1  free  transition at x/c =  0.7612   66
 Side 2  free  transition at x/c =  0.8575   70

   6   rms: 0.1464E-01   max: -.8742E-01   T at   66  1
       a =  1.100      CL =  0.3591
      Cm = -0.0653     CD =  0.02582   =>   CDf =  0.00736    CDp =  0.01846

 Side 1  free  transition at x/c =  0.7646   67
 Side 2  free  transition at x/c =  0.8571   70

   7   rms: 0.3279E-01   max: 0.1432E+00   D at   71  1
       a =  1.100      CL =  0.3452
      Cm = -0.0634     CD =  0.02626   =>   CDf =  0.00738    CDp =  0.01887

 Side 1  free  transition at x/c =  0.7612   66
 Side 2  free  transition at x/c =  0.8575   70

   8   rms: 0.1465E-01   max: -.8748E-01   T at   66  1
       a =  1.100      CL =  0.3591
      Cm = -0.0653     CD =  0.02582   =>   CDf =  0.00736    CDp =  0.01846

 Side 1  free  transition at x/c =  0.7646   67
 Side 2  free  transition at x/c =  0.8571   70

   9   rms: 0.3279E-01   max: 0.1432E+00   D at   71  1
       a =  1.100      CL =  0.3452
      Cm = -0.0634     CD =  0.02626   =>   CDf =  0.00738    CDp =  0.01887

 Side 1  free  transition at x/c =  0.7612   66
 Side 2  free  transition at x/c =  0.8575   70

  10   rms: 0.1465E-01   max: -.8747E-01   T at   66  1
       a =  1.100      CL =  0.3591
      Cm = -0.0653     CD =  0.02582   =>   CDf =  0.00736    CDp =  0.01846
 VISCAL:  Convergence failed

.OPERva   c>  
.OPERva   c>  
.OPERva   c>   Calculating wake trajectory ...
 Calculating source influence matrix ...

 Solving BL system ...

 Side 1  free  transition at x/c =  0.7646   67
 Side 2  free  transition at x/c =  0.8571   70

   1   rms: 0.2966E-01   max: 0.1363E+00   T at   67  1
       a =  1.150      CL =  0.3542
      Cm = -0.0638     CD =  0.02613   =>   CDf =  0.00738    CDp =  0.01874

 Side 1  free  transition at x/c =  0.7608   66
 Side 2  free  transition at x/c =  0.8590   70

   2   rms: 0.2716E-01   max: -.1582E+00   T at   66  1
       a =  1.150      CL =  0.3797
      Cm = -0.0674     CD =  0.02535   =>   CDf =  0.00737    CDp =  0.01797

 Side 1  free  transition at x/c =  0.7674   67
 Side 2  free  transition at x/c =  0.8583   70

   3   rms: 0.6117E-01   max: 0.2734E+00   D at   70  1
       a =  1.150      CL =  0.3521
      Cm = -0.0636     CD =  0.02618   =>   CDf =  0.00741    CDp =  0.01877

 Side 1  free  transition at x/c =  0.7603   66
 Side 2  free  transition at x/c =  0.8591   70

   4   rms: 0.3244E-01   max: -.1828E+00   T at   66  1
       a =  1.150      CL =  0.3818
      Cm = -0.0676     CD =  0.02528   =>   CDf =  0.00737    CDp =  0.01791

 Side 1  free  transition at x/c =  0.7681   67
 Side 2  free  transition at x/c =  0.8582   70

   5   rms: 0.6705E-01   max: 0.3010E+00   D at   71  1
       a =  1.150      CL =  0.3513
      Cm = -0.0635     CD =  0.02619   =>   CDf =  0.00741    CDp =  0.01878

 Side 1  free  transition at x/c =  0.7602   66
 Side 2  free  transition at x/c =  0.8591   70

   6   rms: 0.3424E-01   max: -.1907E+00   T at   66  1
       a =  1.150      CL =  0.3826
      Cm = -0.0678     CD =  0.02526   =>   CDf =  0.00737    CDp =  0.01789

 Side 1  free  transition at x/c =  0.7683   67
 Side 2  free  transition at x/c =  0.8582   70

   7   rms: 0.6909E-01   max: 0.3109E+00   D at   71  1
       a =  1.150      CL =  0.3510
      Cm = -0.0634     CD =  0.02620   =>   CDf =  0.00741    CDp =  0.01878

 Side 1  free  transition at x/c =  0.7601   66
 Side 2  free  transition at x/c =  0.8592   70

   8   rms: 0.3486E-01   max: -.1934E+00   T at   66  1
       a =  1.150      CL =  0.3828
      Cm = -0.0678     CD =  0.02525   =>   CDf =  0.00737    CDp =  0.01788

 Side 1  free  transition at x/c =  0.7684   67
 Side 2  free  transition at x/c =  0.8582   70

   9   rms: 0.6977E-01   max: 0.3142E+00   D at   71  1
       a =  1.150      CL =  0.3509
      Cm = -0.0634     CD =  0.02620   =>   CDf =  0.00741    CDp =  0.01879

 Side 1  free  transition at x/c =  0.7601   66
 Side 2  free  transition at x/c =  0.8592   70

  10   rms: 0.3509E-01   max: -.1944E+00   T at   66  1
       a =  1.150      CL =  0.3829
      Cm = -0.0678     CD =  0.02525   =>   CDf =  0.00737    CDp =  0.01788
 VISCAL:  Convergence failed

.OPERva   c>  
.OPERva   c>  
.OPERva   c>   Calculating wake trajectory ...
 Calculating source influence matrix ...

 Solving BL system ...

 Side 1  free  transition at x/c =  0.7684   67
 Side 2  free  transition at x/c =  0.8582   70

   1   rms: 0.6613E-01   max: 0.3005E+00   D at   71  1
       a =  1.200      CL =  0.3593
      Cm = -0.0638     CD =  0.02609   =>   CDf =  0.00742    CDp =  0.01868

 Side 1  free  transition at x/c =  0.7594   66
 Side 2  free  transition at x/c =  0.8608   70

   2   rms: 0.5757E-01   max: -.3154E+00   T at   66  1
       a =  1.200      CL =  0.4113
      Cm = -0.0709     CD =  0.02455   =>   CDf =  0.00732    CDp =  0.01723

 Side 1  free  transition at x/c =  0.7740   68
 Side 2  free  transition at x/c =  0.8592   69
 idif Ue xi dudx           1  0.18549392      2.26986408E-03   81.720276    
 Uenew xinew           2  3.39697115E-02  4.15682793E-04

   3   rms: 0.1140E+00   max: 0.5514E+00   D at   71  1
       a =  1.200      CL =  0.3597
      Cm = -0.0640     CD =  0.02597   =>   CDf =  0.00753    CDp =  0.01844

 Side 1  free  transition at x/c =  0.7594   66
 Side 2  free  transition at x/c =  0.8610   70

   4   rms: 0.5998E-01   max: -.3198E+00   T at   66  1
       a =  1.200      CL =  0.4124
      Cm = -0.0711     CD =  0.02456   =>   CDf =  0.00732    CDp =  0.01724

 Side 1  free  transition at x/c =  0.7742   68
 Side 2  free  transition at x/c =  0.8593   69
 idif Ue xi dudx           1  0.18387537      2.24959850E-03   81.736969    
 Uenew xinew           2  3.23202051E-02  3.95417213E-04

   5   rms: 0.1151E+00   max: 0.5618E+00   D at   71  1
       a =  1.200      CL =  0.3611
      Cm = -0.0642     CD =  0.02592   =>   CDf =  0.00753    CDp =  0.01839

 Side 1  free  transition at x/c =  0.7597   66
 Side 2  free  transition at x/c =  0.8609   70

   6   rms: 0.5582E-01   max: -.2986E+00   T at   66  1
       a =  1.200      CL =  0.4100
      Cm = -0.0708     CD =  0.02465   =>   CDf =  0.00732    CDp =  0.01733

 Side 1  free  transition at x/c =  0.7734   68
 Side 2  free  transition at x/c =  0.8592   69
 idif Ue xi dudx           1  0.18449338      2.25806236E-03   81.704285    
 Uenew xinew           2  3.29988152E-02  4.03881073E-04

   7   rms: 0.1104E+00   max: 0.5345E+00   D at   71  1
       a =  1.200      CL =  0.3604
      Cm = -0.0641     CD =  0.02596   =>   CDf =  0.00753    CDp =  0.01843

 Side 1  free  transition at x/c =  0.7596   66
 Side 2  free  transition at x/c =  0.8610   70

   8   rms: 0.5737E-01   max: -.3077E+00   T at   66  1
       a =  1.200      CL =  0.4109
      Cm = -0.0709     CD =  0.02460   =>   CDf =  0.00732    CDp =  0.01729

 Side 1  free  transition at x/c =  0.7737   68
 Side 2  free  transition at x/c =  0.8592   69
 idif Ue xi dudx           1  0.18435010      2.25615501E-03   81.709854    
 Uenew xinew           2  3.28452140E-02  4.01973724E-04

   9   rms: 0.1124E+00   max: 0.5458E+00   D at   71  1
       a =  1.200      CL =  0.3606
      Cm = -0.0641     CD =  0.02595   =>   CDf =  0.00753    CDp =  0.01842

 Side 1  free  transition at x/c =  0.7596   66
 Side 2  free  transition at x/c =  0.8609   70

  10   rms: 0.5725E-01   max: -.3067E+00   T at   66  1
       a =  1.200      CL =  0.4108
      Cm = -0.0709     CD =  0.02461   =>   CDf =  0.00732    CDp =  0.01729
 VISCAL:  Convergence failed

.OPERva   c>  
.OPERva   c>  
.OPERva   c>   Calculating wake trajectory ...
 Calculating source influence matrix ...

 Solving BL system ...

 Side 1  free  transition at x/c =  0.7737   68
 Side 2  free  transition at x/c =  0.8592   69
 idif Ue xi dudx           1  0.16442661      2.17115879E-03   75.732193    
 Uenew xinew           2  2.40054019E-02  3.16977501E-04

   1   rms: 0.1096E+00   max: 0.5353E+00   D at   71  1
       a =  1.250      CL =  0.3677
      Cm = -0.0644     CD =  0.02589   =>   CDf =  0.00753    CDp =  0.01836

 Side 1  free  transition at x/c =  0.7586   66
 Side 2  free  transition at x/c =  0.8625   70

   2   rms: 0.9721E-01   max: -.5187E+00   T at   66  1   RLX: 0.964
       a =  1.250      CL =  0.4506
      Cm = -0.0756     CD =  0.02358   =>   CDf =  0.00732    CDp =  0.01625

 MRCHDU: Convergence failed at  83  side 1    Res =  0.2056E+01
 Side 1  free  transition at x/c =  0.7833   69
 Side 2  free  transition at x/c =  0.8598   69

   3   rms: 0.9218E-01   max: 0.5779E+00   D at   69  1
       a =  1.250      CL =  0.4361
      Cm = -0.0743     CD =  0.02373   =>   CDf =  0.00750    CDp =  0.01623

 Side 1  free  transition at x/c =  0.7737   68
 Side 2  free  transition at x/c =  0.8600   69

   4   rms: 0.5031E+01   max: -.2412E+02   T at   68  1   RLX: 0.021
       a =  1.250      CL =  0.5357
      Cm = -0.0930     CD =  0.01959   =>   CDf =  0.00745    CDp =  0.01213

 MRCHDU: Convergence failed at  71  side 1    Res =  0.1010E+01
 MRCHDU: Convergence failed at  72  side 1    Res =  0.5166E+01
 MRCHDU: Convergence failed at  73  side 1    Res =  0.1127E+02
 MRCHDU: Convergence failed at  74  side 1    Res =  0.4506E+01
 MRCHDU: Convergence failed at  75  side 1    Res =  0.3882E+01
 MRCHDU: Convergence failed at  76  side 1    Res =  0.4267E+01
 MRCHDU: Convergence failed at  77  side 1    Res =  0.5200E+01
 MRCHDU: Convergence failed at  78  side 1    Res =  0.6730E+01
 MRCHDU: Convergence failed at  79  side 1    Res =  0.9238E+01
 MRCHDU: Convergence failed at  80  side 1    Res =  0.1401E+02
 MRCHDU: Convergence failed at  81  side 1    Res =  0.2806E+02
 MRCHDU: Convergence failed at  82  side 1    Res =  0.2497E+04
 MRCHDU: Convergence failed at  83  side 1    Res =  0.1959E+02
 Side 1  free  transition at x/c =  0.8022   70
 Side 2  free  transition at x/c =  0.8565   69

   5   rms: 0.4333E+00   max: 0.2826E+01   D at   83  1   RLX: 0.531
       a =  1.250      CL =  0.4338
      Cm = -0.0931     CD =  0.01242   =>   CDf =  0.00745    CDp =  0.00497

 MRCHDU: Convergence failed at  71  side 1    Res =  0.1770E+01
 MRCHDU: Convergence failed at  72  side 1    Res =  0.1079E+02
 MRCHDU: Convergence failed at  73  side 1    Res =  0.7791E+01
 MRCHDU: Convergence failed at  74  side 1    Res =  0.1288E+01
 Side 1  free  transition at x/c =  0.7834   69
 Side 2  free  transition at x/c =  0.8634   69
 idif Ue xi dudx           2  0.34043333      4.40621376E-03   77.262100    
 Uenew xinew           3  0.19717538      2.55203247E-03

   6   rms: 0.4740E+01   max: 0.2362E+02   T at   69  1   RLX: 0.049
       a =  1.250      CL =  0.2440
      Cm = -0.0684     CD =  0.02433   =>   CDf =  0.00759    CDp =  0.01674

 MRCHDU: Convergence failed at  68  side 1    Res =  0.3051E+01
 Side 1  free  transition at x/c =  0.7483   65
 Side 2  free  transition at x/c =  0.8721   72

   7   rms: 0.9608E-01   max: -.4377E+00   D at   77  1
       a =  1.250      CL =  0.2773
      Cm = -0.0521     CD =  0.02883   =>   CDf =  0.00723    CDp =  0.02160

 Side 1  free  transition at x/c =  0.7400   65
 Side 2  free  transition at x/c =  0.8670   71
 idif Ue xi dudx           1  0.19149345      2.50029564E-03   76.588326    
 Uenew xinew           2  4.56045493E-02  5.95450401E-04

   8   rms: 0.8367E-01   max: 0.6141E+00   T at   65  1
       a =  1.250      CL =  0.2038
      Cm = -0.0441     CD =  0.03173   =>   CDf =  0.00735    CDp =  0.02438

 Side 1  free  transition at x/c =  0.7221   63
 Side 2  free  transition at x/c =  0.8675   72

   9   rms: 0.2821E+00   max: -.1710E+01   T at   63  1   RLX: 0.292
       a =  1.250      CL =  0.2696
      Cm = -0.0485     CD =  0.03205   =>   CDf =  0.00712    CDp =  0.02492

 Side 1  free  transition at x/c =  0.7419   65
 Side 2  free  transition at x/c =  0.8666   71

  10   rms: 0.6333E-01   max: -.1645E+00   D at   87  2
       a =  1.250      CL =  0.3343
      Cm = -0.0596     CD =  0.02650   =>   CDf =  0.00729    CDp =  0.01922
 VISCAL:  Convergence failed

.OPERva   c>  
.OPERva   c>  
.OPERva   c>   Calculating wake trajectory ...
 Calculating source influence matrix ...

 Solving BL system ...

 Side 1  free  transition at x/c =  0.7525   66
 Side 2  free  transition at x/c =  0.8647   70

   1   rms: 0.2455E-01   max: 0.1305E+00   D at   66  1
       a =  1.300      CL =  0.3362
      Cm = -0.0594     CD =  0.02704   =>   CDf =  0.00736    CDp =  0.01968

 Side 1  free  transition at x/c =  0.7481   66
 Side 2  free  transition at x/c =  0.8657   70

   2   rms: 0.2870E-02   max: -.1490E-01   D at   66  1
       a =  1.300      CL =  0.3377
      Cm = -0.0596     CD =  0.02693   =>   CDf =  0.00734    CDp =  0.01958

 Side 1  free  transition at x/c =  0.7485   66
 Side 2  free  transition at x/c =  0.8657   70

   3   rms: 0.9762E-04   max: 0.5649E-03   D at   73  2
       a =  1.300      CL =  0.3377
      Cm = -0.0596     CD =  0.02693   =>   CDf =  0.00734    CDp =  0.01958
 plradd ia,ip,cpol           18          81  0.24290843    

 Point added to stored polar  1
 Save file unspecified or not available
 Dump file unspecified or not available

.OPERva   c>  
.OPERva   c>  
.OPERva   c>   Calculating wake trajectory ...
 Calculating source influence matrix ...

 Solving BL system ...

 Side 1  free  transition at x/c =  0.7485   66
 Side 2  free  transition at x/c =  0.8657   70

   1   rms: 0.1324E-01   max: -.8006E-01   D at    3  2
       a =  1.350      CL =  0.3483
      Cm = -0.0604     CD =  0.02681   =>   CDf =  0.00734    CDp =  0.01947

 Side 1  free  transition at x/c =  0.7479   66
 Side 2  free  transition at x/c =  0.8673   71

   2   rms: 0.2717E-02   max: -.4859E-01   D at   70  2
       a =  1.350      CL =  0.3472
      Cm = -0.0601     CD =  0.02680   =>   CDf =  0.00736    CDp =  0.01944

 Side 1  free  transition at x/c =  0.7480   66
 Side 2  free  transition at x/c =  0.8670   71

   3   rms: 0.1842E-03   max: 0.2123E-02   D at   73  2
       a =  1.350      CL =  0.3471
      Cm = -0.0601     CD =  0.02680   =>   CDf =  0.00735    CDp =  0.01945

 Side 1  free  transition at x/c =  0.7480   66
 Side 2  free  transition at x/c =  0.8670   71

   4   rms: 0.2934E-05   max: -.2396E-04   D at   82  2
       a =  1.350      CL =  0.3471
      Cm = -0.0601     CD =  0.02680   =>   CDf =  0.00735    CDp =  0.01945
 plradd ia,ip,cpol           19          81  0.24290843    

 Point added to stored polar  1
 Save file unspecified or not available
 Dump file unspecified or not available

.OPERva   c>  
.OPERva   c>  
.OPERva   c>   Calculating wake trajectory ...
 Calculating source influence matrix ...

 Solving BL system ...

 Side 1  free  transition at x/c =  0.7480   66
 Side 2  free  transition at x/c =  0.8670   71

   1   rms: 0.1173E-01   max: -.3243E-01   T at   71  2
       a =  1.400      CL =  0.3558
      Cm = -0.0604     CD =  0.02665   =>   CDf =  0.00735    CDp =  0.01930

 Side 1  free  transition at x/c =  0.7474   66
 Side 2  free  transition at x/c =  0.8683   71

   2   rms: 0.3295E-03   max: -.1904E-02   D at   72  2
       a =  1.400      CL =  0.3560
      Cm = -0.0604     CD =  0.02666   =>   CDf =  0.00736    CDp =  0.01931

 Side 1  free  transition at x/c =  0.7475   66
 Side 2  free  transition at x/c =  0.8683   71

   3   rms: 0.6844E-05   max: 0.5067E-04   D at   73  2
       a =  1.400      CL =  0.3560
      Cm = -0.0604     CD =  0.02666   =>   CDf =  0.00736    CDp =  0.01931
 plradd ia,ip,cpol           20          81  0.24290843    

 Point added to stored polar  1
 Save file unspecified or not available
 Dump file unspecified or not available

.OPERva   c>  
.OPERva   c>  
.OPERva   c>   Calculating wake trajectory ...
 Calculating source influence matrix ...

 Solving BL system ...

 Side 1  free  transition at x/c =  0.7475   66
 Side 2  free  transition at x/c =  0.8683   71

   1   rms: 0.1137E-01   max: -.2976E-01   T at   71  2
       a =  1.450      CL =  0.3651
      Cm = -0.0608     CD =  0.02651   =>   CDf =  0.00729    CDp =  0.01922

 Side 1  free  transition at x/c =  0.7470   67
 Side 2  free  transition at x/c =  0.8697   70

   2   rms: 0.2904E-02   max: -.4911E-01   D at    2  1
       a =  1.450      CL =  0.3653
      Cm = -0.0609     CD =  0.02652   =>   CDf =  0.00736    CDp =  0.01916

 Side 1  free  transition at x/c =  0.7470   67
 Side 2  free  transition at x/c =  0.8697   70

   3   rms: 0.3202E-03   max: 0.4397E-02   D at    4  1
       a =  1.450      CL =  0.3653
      Cm = -0.0609     CD =  0.02652   =>   CDf =  0.00736    CDp =  0.01916

 Side 1  free  transition at x/c =  0.7470   67
 Side 2  free  transition at x/c =  0.8697   70

   4   rms: 0.3178E-04   max: -.4359E-03   D at    4  1
       a =  1.450      CL =  0.3653
      Cm = -0.0609     CD =  0.02652   =>   CDf =  0.00736    CDp =  0.01916
 plradd ia,ip,cpol           21          82  0.24290843    

 Point added to stored polar  1
 Save file unspecified or not available
 Dump file unspecified or not available

.OPERva   c>  
.OPERva   c>  
.OPERva   c>   Calculating wake trajectory ...
 Calculating source influence matrix ...

 Solving BL system ...

 Side 1  free  transition at x/c =  0.7470   67
 Side 2  free  transition at x/c =  0.8697   70

   1   rms: 0.1138E-01   max: -.2610E-01   T at   70  2
       a =  1.500      CL =  0.3747
      Cm = -0.0613     CD =  0.02637   =>   CDf =  0.00736    CDp =  0.01900

 Side 1  free  transition at x/c =  0.7465   67
 Side 2  free  transition at x/c =  0.8710   70

   2   rms: 0.9781E-03   max: -.1200E-01   D at    4  1
       a =  1.500      CL =  0.3748
      Cm = -0.0614     CD =  0.02637   =>   CDf =  0.00737    CDp =  0.01900

 Side 1  free  transition at x/c =  0.7466   67
 Side 2  free  transition at x/c =  0.8710   70

   3   rms: 0.4143E-05   max: 0.3818E-04   D at   72  2
       a =  1.500      CL =  0.3748
      Cm = -0.0614     CD =  0.02637   =>   CDf =  0.00737    CDp =  0.01900
 plradd ia,ip,cpol           22          82  0.24290843    

 Point added to stored polar  1
 Save file unspecified or not available
 Dump file unspecified or not available

.OPERva   c>  
.OPERva   c>  
.OPERva   c>   Calculating wake trajectory ...
 Calculating source influence matrix ...

 Solving BL system ...

 Side 1  free  transition at x/c =  0.7466   67
 Side 2  free  transition at x/c =  0.8710   70

   1   rms: 0.1108E-01   max: -.2735E-01   T at   70  2
       a =  1.550      CL =  0.3838
      Cm = -0.0618     CD =  0.02624   =>   CDf =  0.00737    CDp =  0.01887

 Side 1  free  transition at x/c =  0.7461   67
 Side 2  free  transition at x/c =  0.8724   70

   2   rms: 0.3294E-03   max: -.1728E-02   D at   71  2
       a =  1.550      CL =  0.3837
      Cm = -0.0618     CD =  0.02626   =>   CDf =  0.00738    CDp =  0.01888

 Side 1  free  transition at x/c =  0.7461   67
 Side 2  free  transition at x/c =  0.8724   70

   3   rms: 0.6387E-05   max: -.5823E-04   D at   72  2
       a =  1.550      CL =  0.3837
      Cm = -0.0618     CD =  0.02626   =>   CDf =  0.00738    CDp =  0.01888
 plradd ia,ip,cpol           23          82  0.24290843    

 Point added to stored polar  1
 Save file unspecified or not available
 Dump file unspecified or not available

.OPERva   c>  
.OPERva   c>  
.OPERva   c>   Calculating wake trajectory ...
 Calculating source influence matrix ...

 Solving BL system ...

 Side 1  free  transition at x/c =  0.7461   67
 Side 2  free  transition at x/c =  0.8724   70

   1   rms: 0.1206E-01   max: -.7087E-01   D at    3  1
       a =  1.600      CL =  0.3933
      Cm = -0.0623     CD =  0.02610   =>   CDf =  0.00738    CDp =  0.01872

 Side 1  free  transition at x/c =  0.7456   67
 Side 2  free  transition at x/c =  0.8739   70

   2   rms: 0.2779E-03   max: -.1307E-02   D at    4  1
       a =  1.600      CL =  0.3934
      Cm = -0.0623     CD =  0.02611   =>   CDf =  0.00739    CDp =  0.01872

 Side 1  free  transition at x/c =  0.7456   67
 Side 2  free  transition at x/c =  0.8739   70

   3   rms: 0.4299E-05   max: 0.4063E-04   D at   72  2
       a =  1.600      CL =  0.3934
      Cm = -0.0623     CD =  0.02611   =>   CDf =  0.00739    CDp =  0.01872
 plradd ia,ip,cpol           24          82  0.24290843    

 Point added to stored polar  1
 Save file unspecified or not available
 Dump file unspecified or not available

.OPERva   c>  
.OPERva   c>  
.OPERva   c>   Calculating wake trajectory ...
 Calculating source influence matrix ...

 Solving BL system ...

 Side 1  free  transition at x/c =  0.7456   67
 Side 2  free  transition at x/c =  0.8739   70

   1   rms: 0.1176E-01   max: -.2504E-01   T at   70  2
       a =  1.650      CL =  0.4031
      Cm = -0.0629     CD =  0.02596   =>   CDf =  0.00739    CDp =  0.01857

 Side 1  free  transition at x/c =  0.7452   66
 Side 2  free  transition at x/c =  0.8754   70

   2   rms: 0.2746E-02   max: -.1592E-01   T at   66  1
       a =  1.650      CL =  0.4057
      Cm = -0.0632     CD =  0.02589   =>   CDf =  0.00740    CDp =  0.01849

 Side 1  free  transition at x/c =  0.7458   67
 Side 2  free  transition at x/c =  0.8753   70

   3   rms: 0.7106E-02   max: 0.2926E-01   D at   71  1
       a =  1.650      CL =  0.4032
      Cm = -0.0629     CD =  0.02598   =>   CDf =  0.00740    CDp =  0.01858

 Side 1  free  transition at x/c =  0.7452   66
 Side 2  free  transition at x/c =  0.8753   70

   4   rms: 0.2581E-02   max: -.1556E-01   T at   66  1
       a =  1.650      CL =  0.4057
      Cm = -0.0632     CD =  0.02589   =>   CDf =  0.00740    CDp =  0.01849

 Side 1  free  transition at x/c =  0.7458   67
 Side 2  free  transition at x/c =  0.8753   70

   5   rms: 0.7095E-02   max: 0.2922E-01   D at   71  1
       a =  1.650      CL =  0.4032
      Cm = -0.0629     CD =  0.02598   =>   CDf =  0.00740    CDp =  0.01858

 Side 1  free  transition at x/c =  0.7452   66
 Side 2  free  transition at x/c =  0.8753   70

   6   rms: 0.2578E-02   max: -.1555E-01   T at   66  1
       a =  1.650      CL =  0.4057
      Cm = -0.0632     CD =  0.02589   =>   CDf =  0.00740    CDp =  0.01849

 Side 1  free  transition at x/c =  0.7458   67
 Side 2  free  transition at x/c =  0.8753   70

   7   rms: 0.7093E-02   max: 0.2921E-01   D at   71  1
       a =  1.650      CL =  0.4032
      Cm = -0.0629     CD =  0.02598   =>   CDf =  0.00740    CDp =  0.01858

 Side 1  free  transition at x/c =  0.7452   66
 Side 2  free  transition at x/c =  0.8753   70

   8   rms: 0.2580E-02   max: -.1556E-01   T at   66  1
       a =  1.650      CL =  0.4057
      Cm = -0.0632     CD =  0.02589   =>   CDf =  0.00740    CDp =  0.01849

 Side 1  free  transition at x/c =  0.7458   67
 Side 2  free  transition at x/c =  0.8753   70

   9   rms: 0.7092E-02   max: 0.2921E-01   D at   71  1
       a =  1.650      CL =  0.4032
      Cm = -0.0629     CD =  0.02598   =>   CDf =  0.00740    CDp =  0.01858

 Side 1  free  transition at x/c =  0.7452   66
 Side 2  free  transition at x/c =  0.8753   70

  10   rms: 0.2579E-02   max: -.1556E-01   T at   66  1
       a =  1.650      CL =  0.4057
      Cm = -0.0632     CD =  0.02589   =>   CDf =  0.00740    CDp =  0.01849
 VISCAL:  Convergence failed

.OPERva   c>  
.OPERva   c>  
.OPERva   c>   Calculating wake trajectory ...
 Calculating source influence matrix ...

 Solving BL system ...

 Side 1  free  transition at x/c =  0.7458   67
 Side 2  free  transition at x/c =  0.8753   70

   1   rms: 0.1066E-01   max: -.2739E-01   T at   70  2
       a =  1.700      CL =  0.4129
      Cm = -0.0635     CD =  0.02584   =>   CDf =  0.00740    CDp =  0.01844

 Side 1  free  transition at x/c =  0.7448   66
 Side 2  free  transition at x/c =  0.8769   70

   2   rms: 0.1244E-01   max: -.7209E-01   T at   66  1
       a =  1.700      CL =  0.4246
      Cm = -0.0650     CD =  0.02546   =>   CDf =  0.00741    CDp =  0.01805

 Side 1  free  transition at x/c =  0.7477   67
 Side 2  free  transition at x/c =  0.8764   70

   3   rms: 0.2961E-01   max: 0.1264E+00   D at   70  1
       a =  1.700      CL =  0.4123
      Cm = -0.0634     CD =  0.02588   =>   CDf =  0.00742    CDp =  0.01845

 Side 1  free  transition at x/c =  0.7447   66
 Side 2  free  transition at x/c =  0.8770   70

   4   rms: 0.1385E-01   max: -.7870E-01   T at   66  1
       a =  1.700      CL =  0.4249
      Cm = -0.0651     CD =  0.02545   =>   CDf =  0.00741    CDp =  0.01804

 Side 1  free  transition at x/c =  0.7478   67
 Side 2  free  transition at x/c =  0.8764   70

   5   rms: 0.3048E-01   max: 0.1302E+00   D at   70  1
       a =  1.700      CL =  0.4122
      Cm = -0.0634     CD =  0.02588   =>   CDf =  0.00742    CDp =  0.01845

 Side 1  free  transition at x/c =  0.7446   66
 Side 2  free  transition at x/c =  0.8770   70

   6   rms: 0.1397E-01   max: -.7921E-01   T at   66  1
       a =  1.700      CL =  0.4249
      Cm = -0.0651     CD =  0.02545   =>   CDf =  0.00741    CDp =  0.01804

 Side 1  free  transition at x/c =  0.7478   67
 Side 2  free  transition at x/c =  0.8764   70

   7   rms: 0.3056E-01   max: 0.1306E+00   D at   70  1
       a =  1.700      CL =  0.4122
      Cm = -0.0634     CD =  0.02588   =>   CDf =  0.00742    CDp =  0.01845

 Side 1  free  transition at x/c =  0.7446   66
 Side 2  free  transition at x/c =  0.8770   70

   8   rms: 0.1399E-01   max: -.7927E-01   T at   66  1
       a =  1.700      CL =  0.4249
      Cm = -0.0651     CD =  0.02545   =>   CDf =  0.00741    CDp =  0.01804

 Side 1  free  transition at x/c =  0.7478   67
 Side 2  free  transition at x/c =  0.8764   70

   9   rms: 0.3056E-01   max: 0.1306E+00   D at   70  1
       a =  1.700      CL =  0.4122
      Cm = -0.0634     CD =  0.02588   =>   CDf =  0.00742    CDp =  0.01845

 Side 1  free  transition at x/c =  0.7446   66
 Side 2  free  transition at x/c =  0.8770   70

  10   rms: 0.1399E-01   max: -.7925E-01   T at   66  1
       a =  1.700      CL =  0.4249
      Cm = -0.0651     CD =  0.02545   =>   CDf =  0.00741    CDp =  0.01804
 VISCAL:  Convergence failed

.OPERva   c>  
.OPERva   c>  
.OPERva   c>   Calculating wake trajectory ...
 Calculating source influence matrix ...

 Solving BL system ...

 Side 1  free  transition at x/c =  0.7478   67
 Side 2  free  transition at x/c =  0.8764   70

   1   rms: 0.2742E-01   max: 0.1266E+00   T at   67  1
       a =  1.750      CL =  0.4217
      Cm = -0.0639     CD =  0.02574   =>   CDf =  0.00742    CDp =  0.01831

 Side 1  free  transition at x/c =  0.7442   66
 Side 2  free  transition at x/c =  0.8785   70

   2   rms: 0.2755E-01   max: -.1522E+00   T at   66  1
       a =  1.750      CL =  0.4465
      Cm = -0.0673     CD =  0.02492   =>   CDf =  0.00742    CDp =  0.01751

 Side 1  free  transition at x/c =  0.7506   67
 Side 2  free  transition at x/c =  0.8774   70

   3   rms: 0.5993E-01   max: 0.2669E+00   D at   70  1
       a =  1.750      CL =  0.4198
      Cm = -0.0637     CD =  0.02577   =>   CDf =  0.00745    CDp =  0.01832

 Side 1  free  transition at x/c =  0.7437   66
 Side 2  free  transition at x/c =  0.8787   70

   4   rms: 0.3261E-01   max: -.1740E+00   T at   66  1
       a =  1.750      CL =  0.4484
      Cm = -0.0675     CD =  0.02486   =>   CDf =  0.00741    CDp =  0.01745

 Side 1  free  transition at x/c =  0.7512   67
 Side 2  free  transition at x/c =  0.8773   70

   5   rms: 0.6488E-01   max: 0.2914E+00   D at   70  1
       a =  1.750      CL =  0.4194
      Cm = -0.0637     CD =  0.02578   =>   CDf =  0.00745    CDp =  0.01833

 Side 1  free  transition at x/c =  0.7436   66
 Side 2  free  transition at x/c =  0.8788   70

   6   rms: 0.3384E-01   max: -.1796E+00   T at   66  1
       a =  1.750      CL =  0.4489
      Cm = -0.0676     CD =  0.02484   =>   CDf =  0.00741    CDp =  0.01743

 Side 1  free  transition at x/c =  0.7514   67
 Side 2  free  transition at x/c =  0.8773   70

   7   rms: 0.6624E-01   max: 0.2982E+00   D at   70  1
       a =  1.750      CL =  0.4192
      Cm = -0.0637     CD =  0.02578   =>   CDf =  0.00745    CDp =  0.01833

 Side 1  free  transition at x/c =  0.7436   66
 Side 2  free  transition at x/c =  0.8788   70

   8   rms: 0.3421E-01   max: -.1812E+00   T at   66  1
       a =  1.750      CL =  0.4490
      Cm = -0.0676     CD =  0.02484   =>   CDf =  0.00741    CDp =  0.01743

 Side 1  free  transition at x/c =  0.7514   67
 Side 2  free  transition at x/c =  0.8773   70

   9   rms: 0.6664E-01   max: 0.3002E+00   D at   70  1
       a =  1.750      CL =  0.4192
      Cm = -0.0637     CD =  0.02578   =>   CDf =  0.00745    CDp =  0.01833

 Side 1  free  transition at x/c =  0.7436   66
 Side 2  free  transition at x/c =  0.8788   70

  10   rms: 0.3432E-01   max: -.1816E+00   T at   66  1
       a =  1.750      CL =  0.4491
      Cm = -0.0676     CD =  0.02484   =>   CDf =  0.00741    CDp =  0.01742
 VISCAL:  Convergence failed

.OPERva   c>  
.OPERva   c>  
.OPERva   c>   Calculating wake trajectory ...
 Calculating source influence matrix ...

 Solving BL system ...

 Side 1  free  transition at x/c =  0.7514   67
 Side 2  free  transition at x/c =  0.8773   70

   1   rms: 0.6228E-01   max: 0.2838E+00   D at   70  1
       a =  1.800      CL =  0.4282
      Cm = -0.0642     CD =  0.02565   =>   CDf =  0.00745    CDp =  0.01820

 Side 1  free  transition at x/c =  0.7429   66
 Side 2  free  transition at x/c =  0.8803   70

   2   rms: 0.5728E-01   max: -.3000E+00   T at   66  1
       a =  1.800      CL =  0.4780
      Cm = -0.0708     CD =  0.02409   =>   CDf =  0.00734    CDp =  0.01675

 Side 1  free  transition at x/c =  0.7569   68
 Side 2  free  transition at x/c =  0.8779   69
 idif Ue xi dudx           1  0.19866072      2.46095657E-03   80.724998    
 Uenew xinew           2  4.82794419E-02  5.98073006E-04

   3   rms: 0.1113E+00   max: 0.5240E+00   D at   71  1
       a =  1.800      CL =  0.4296
      Cm = -0.0645     CD =  0.02546   =>   CDf =  0.00757    CDp =  0.01789

 Side 1  free  transition at x/c =  0.7431   66
 Side 2  free  transition at x/c =  0.8805   70

   4   rms: 0.5718E-01   max: -.2910E+00   T at   66  1
       a =  1.800      CL =  0.4774
      Cm = -0.0707     CD =  0.02414   =>   CDf =  0.00734    CDp =  0.01680

 Side 1  free  transition at x/c =  0.7566   68
 Side 2  free  transition at x/c =  0.8778   69
 idif Ue xi dudx           1  0.19788466      2.45249271E-03   80.687157    
 Uenew xinew           2  4.75738868E-02  5.89609146E-04

   5   rms: 0.1102E+00   max: 0.5166E+00   D at   71  1
       a =  1.800      CL =  0.4302
      Cm = -0.0646     CD =  0.02544   =>   CDf =  0.00757    CDp =  0.01787

 Side 1  free  transition at x/c =  0.7432   66
 Side 2  free  transition at x/c =  0.8804   70

   6   rms: 0.5498E-01   max: -.2803E+00   T at   66  1
       a =  1.800      CL =  0.4762
      Cm = -0.0705     CD =  0.02418   =>   CDf =  0.00734    CDp =  0.01684

 Side 1  free  transition at x/c =  0.7562   68
 Side 2  free  transition at x/c =  0.8778   69
 idif Ue xi dudx           1  0.19881499      2.46918201E-03   80.518562    
 Uenew xinew           2  4.88182791E-02  6.06298447E-04

   7   rms: 0.1104E+00   max: 0.5808E+00   T at    2  1
       a =  1.800      CL =  0.4292
      Cm = -0.0644     CD =  0.02549   =>   CDf =  0.00757    CDp =  0.01792

 Side 1  free  transition at x/c =  0.7430   66
 Side 2  free  transition at x/c =  0.8805   70

   8   rms: 0.5794E-01   max: -.2942E+00   T at   66  1
       a =  1.800      CL =  0.4778
      Cm = -0.0707     CD =  0.02413   =>   CDf =  0.00734    CDp =  0.01679

[...]
 Calculating source influence matrix ...

 Solving BL system ...

 Side 1  free  transition at x/c =  0.5029   61
 Side 2 forced transition at x/c =  1.0000   70

   1   rms: 0.1153E-01   max: 0.5446E-01   T at   61  1
       a =  8.000      CL =  1.2249
      Cm = -0.0861     CD =  0.02379   =>   CDf =  0.00662    CDp =  0.01717

 Side 1  free  transition at x/c =  0.4998   62
 Side 2 forced transition at x/c =  1.0000   69

   2   rms: 0.6647E-02   max: 0.1060E+00   T at    2  1
       a =  8.000      CL =  1.2266
      Cm = -0.0864     CD =  0.02376   =>   CDf =  0.00704    CDp =  0.01672

 Side 1  free  transition at x/c =  0.4998   62
 Side 2 forced transition at x/c =  1.0000   69

   3   rms: 0.3116E-03   max: -.4010E-02   D at    4  1
       a =  8.000      CL =  1.2267
      Cm = -0.0864     CD =  0.02376   =>   CDf =  0.00703    CDp =  0.01673

 Side 1  free  transition at x/c =  0.4998   62
 Side 2 forced transition at x/c =  1.0000   69

   4   rms: 0.3343E-05   max: -.2624E-04   D at    4  1
       a =  8.000      CL =  1.2267
      Cm = -0.0864     CD =  0.02376   =>   CDf =  0.00703    CDp =  0.01673
 plradd ia,ip,cpol          123          92  1.27235781E-02

 Point added to stored polar  1
 Save file unspecified or not available
 Dump file unspecified or not available

.OPERva   c>  
.OPERva   c>  
.OPERva   c>   Calculating wake trajectory ...
 Calculating source influence matrix ...

 Solving BL system ...

 Side 1  free  transition at x/c =  0.4998   62
 Side 2 forced transition at x/c =  1.0000   69

   1   rms: 0.1463E-01   max: 0.6325E-01   T at   62  1
       a =  8.050      CL =  1.2368
      Cm = -0.0869     CD =  0.02358   =>   CDf =  0.00703    CDp =  0.01654

 Side 1  free  transition at x/c =  0.4971   61
 Side 2 forced transition at x/c =  1.0000   69

   2   rms: 0.7644E-02   max: 0.4525E-01   D at   63  1
       a =  8.050      CL =  1.2309
      Cm = -0.0861     CD =  0.02379   =>   CDf =  0.00705    CDp =  0.01674

 Side 1  free  transition at x/c =  0.4967   61
 Side 2 forced transition at x/c =  1.0000   69

   3   rms: 0.1929E-03   max: 0.1169E-02   D at   63  1
       a =  8.050      CL =  1.2308
      Cm = -0.0861     CD =  0.02379   =>   CDf =  0.00703    CDp =  0.01676

 Side 1  free  transition at x/c =  0.4967   61
 Side 2 forced transition at x/c =  1.0000   69

   4   rms: 0.4075E-05   max: -.2544E-04   C at   69  2
       a =  8.050      CL =  1.2308
      Cm = -0.0861     CD =  0.02379   =>   CDf =  0.00703    CDp =  0.01675
 plradd ia,ip,cpol          124          92  1.27235781E-02

 Point added to stored polar  1
 Save file unspecified or not available
 Dump file unspecified or not available

.OPERva   c>  
.OPERva   c>  
.OPERva   c>   Calculating wake trajectory ...
 Calculating source influence matrix ...

 Solving BL system ...

 Side 1  free  transition at x/c =  0.4967   61
 Side 2 forced transition at x/c =  1.0000   69

   1   rms: 0.9118E-02   max: 0.5182E-01   T at   61  1
       a =  8.100      CL =  1.2291
      Cm = -0.0850     CD =  0.02399   =>   CDf =  0.00703    CDp =  0.01696

 Side 1  free  transition at x/c =  0.4931   61
 Side 2 forced transition at x/c =  1.0000   69

   2   rms: 0.2425E-02   max: -.1441E-01   D at   63  1
       a =  8.100      CL =  1.2306
      Cm = -0.0852     CD =  0.02393   =>   CDf =  0.00699    CDp =  0.01694

 Side 1  free  transition at x/c =  0.4933   61
 Side 2 forced transition at x/c =  1.0000   69

   3   rms: 0.6057E-04   max: 0.2595E-03   C at   69  2
       a =  8.100      CL =  1.2307
      Cm = -0.0852     CD =  0.02393   =>   CDf =  0.00698    CDp =  0.01694
 plradd ia,ip,cpol          125          92  1.27235781E-02

 Point added to stored polar  1
 Save file unspecified or not available
 Dump file unspecified or not available

.OPERva   c>  
.OPERva   c>  
.OPERva   c>   Calculating wake trajectory ...
 Calculating source influence matrix ...

 Solving BL system ...

 Side 1  free  transition at x/c =  0.4933   61
 Side 2 forced transition at x/c =  1.0000   69

   1   rms: 0.7397E-02   max: 0.4821E-01   T at   61  1
       a =  8.150      CL =  1.2320
      Cm = -0.0846     CD =  0.02403   =>   CDf =  0.00698    CDp =  0.01704

 Side 1  free  transition at x/c =  0.4898   61
 Side 2 forced transition at x/c =  1.0000   69

   2   rms: 0.2324E-02   max: -.1283E-01   D at   62  1
       a =  8.150      CL =  1.2334
      Cm = -0.0848     CD =  0.02397   =>   CDf =  0.00698    CDp =  0.01700

 Side 1  free  transition at x/c =  0.4899   61
 Side 2 forced transition at x/c =  1.0000   69

   3   rms: 0.6730E-04   max: 0.2907E-03   C at   69  2
       a =  8.150      CL =  1.2334
      Cm = -0.0848     CD =  0.02397   =>   CDf =  0.00697    CDp =  0.01701
 plradd ia,ip,cpol          126          92  1.27235781E-02

 Point added to stored polar  1
 Save file unspecified or not available
 Dump file unspecified or not available

.OPERva   c>  
.OPERva   c>  
.OPERva   c>   Calculating wake trajectory ...
 Calculating source influence matrix ...

 Solving BL system ...

 Side 1  free  transition at x/c =  0.4899   61
 Side 2 forced transition at x/c =  1.0000   69

   1   rms: 0.8345E-02   max: 0.4873E-01   T at   61  1
       a =  8.200      CL =  1.2373
      Cm = -0.0844     CD =  0.02397   =>   CDf =  0.00697    CDp =  0.01701

 Side 1  free  transition at x/c =  0.4865   61
 Side 2 forced transition at x/c =  1.0000   69

   2   rms: 0.2488E-02   max: -.1046E-01   D at   63  1
       a =  8.200      CL =  1.2390
      Cm = -0.0847     CD =  0.02393   =>   CDf =  0.00699    CDp =  0.01693

 Side 1  free  transition at x/c =  0.4866   61
 Side 2 forced transition at x/c =  1.0000   69

   3   rms: 0.6429E-04   max: 0.2750E-03   C at   69  2
       a =  8.200      CL =  1.2390
      Cm = -0.0847     CD =  0.02393   =>   CDf =  0.00698    CDp =  0.01694
 plradd ia,ip,cpol          127          92  1.27235781E-02

 Point added to stored polar  1
 Save file unspecified or not available
 Dump file unspecified or not available

.OPERva   c>  
.OPERva   c>  
.OPERva   c>   Calculating wake trajectory ...
 Calculating source influence matrix ...

 Solving BL system ...

 Side 1  free  transition at x/c =  0.4866   61
 Side 2 forced transition at x/c =  1.0000   69

   1   rms: 0.1066E-01   max: 0.5204E-01   T at   61  1
       a =  8.250      CL =  1.2457
      Cm = -0.0847     CD =  0.02385   =>   CDf =  0.00699    CDp =  0.01686

 Side 1  free  transition at x/c =  0.4835   61
 Side 2 forced transition at x/c =  1.0000   69

   2   rms: 0.2345E-02   max: -.1234E-01   D at   61  1
       a =  8.250      CL =  1.2472
      Cm = -0.0850     CD =  0.02382   =>   CDf =  0.00704    CDp =  0.01678

 Side 1  free  transition at x/c =  0.4835   61
 Side 2 forced transition at x/c =  1.0000   69

   3   rms: 0.7096E-04   max: 0.2925E-03   C at   69  2
       a =  8.250      CL =  1.2473
      Cm = -0.0850     CD =  0.02382   =>   CDf =  0.00703    CDp =  0.01679
 plradd ia,ip,cpol          128          92  1.02410335E-02

 Point added to stored polar  1
 Save file unspecified or not available
 Dump file unspecified or not available

.OPERva   c>  
.OPERva   c>  
.OPERva   c>   Calculating wake trajectory ...
 Calculating source influence matrix ...

 Solving BL system ...

 Side 1  free  transition at x/c =  0.4835   61
 Side 2 forced transition at x/c =  1.0000   69

   1   rms: 0.1345E-01   max: 0.6154E-01   T at   61  1
       a =  8.300      CL =  1.2565
      Cm = -0.0854     CD =  0.02369   =>   CDf =  0.00703    CDp =  0.01666

 Side 1  free  transition at x/c =  0.4809   60
 Side 2 forced transition at x/c =  1.0000   69

   2   rms: 0.7185E-02   max: 0.4209E-01   D at   62  1
       a =  8.300      CL =  1.2511
      Cm = -0.0847     CD =  0.02388   =>   CDf =  0.00704    CDp =  0.01684

 Side 1  free  transition at x/c =  0.4804   60
 Side 2 forced transition at x/c =  1.0000   69

   3   rms: 0.1297E-03   max: 0.5837E-03   D at   61  1
       a =  8.300      CL =  1.2510
      Cm = -0.0846     CD =  0.02387   =>   CDf =  0.00703    CDp =  0.01684

 Side 1  free  transition at x/c =  0.4804   60
 Side 2 forced transition at x/c =  1.0000   69

   4   rms: 0.3098E-05   max: -.1210E-04   C at   69  2
       a =  8.300      CL =  1.2510
      Cm = -0.0846     CD =  0.02387   =>   CDf =  0.00703    CDp =  0.01684
 plradd ia,ip,cpol          129          92  1.27235781E-02

 Point added to stored polar  1
 Save file unspecified or not available
 Dump file unspecified or not available

.OPERva   c>  
.OPERva   c>  
.OPERva   c>   Calculating wake trajectory ...
 Calculating source influence matrix ...

 Solving BL system ...

 Side 1  free  transition at x/c =  0.4804   60
 Side 2 forced transition at x/c =  1.0000   69

   1   rms: 0.8763E-02   max: 0.4793E-01   T at   60  1
       a =  8.350      CL =  1.2496
      Cm = -0.0836     CD =  0.02406   =>   CDf =  0.00703    CDp =  0.01703

 Side 1  free  transition at x/c =  0.4769   60
 Side 2 forced transition at x/c =  1.0000   69

   2   rms: 0.2280E-02   max: -.1269E-01   D at   62  1
       a =  8.350      CL =  1.2509
      Cm = -0.0838     CD =  0.02401   =>   CDf =  0.00699    CDp =  0.01702

 Side 1  free  transition at x/c =  0.4770   60
 Side 2 forced transition at x/c =  1.0000   69

   3   rms: 0.5833E-04   max: 0.2282E-03   C at   69  2
       a =  8.350      CL =  1.2510
      Cm = -0.0838     CD =  0.02401   =>   CDf =  0.00698    CDp =  0.01703
 plradd ia,ip,cpol          130          92  1.02410335E-02

 Point added to stored polar  1
 Save file unspecified or not available
 Dump file unspecified or not available

.OPERva   c>  
.OPERva   c>  
.OPERva   c>   Calculating wake trajectory ...
 Calculating source influence matrix ...

 Solving BL system ...

 Side 1  free  transition at x/c =  0.4770   60
 Side 2 forced transition at x/c =  1.0000   69

   1   rms: 0.7545E-02   max: 0.4418E-01   T at   60  1
       a =  8.400      CL =  1.2524
      Cm = -0.0831     CD =  0.02412   =>   CDf =  0.00698    CDp =  0.01714

 Side 1  free  transition at x/c =  0.4736   60
 Side 2 forced transition at x/c =  1.0000   69

   2   rms: 0.2245E-02   max: -.1082E-01   D at   61  1
       a =  8.400      CL =  1.2536
      Cm = -0.0833     CD =  0.02407   =>   CDf =  0.00697    CDp =  0.01710

 Side 1  free  transition at x/c =  0.4737   60
 Side 2 forced transition at x/c =  1.0000   69

   3   rms: 0.6181E-04   max: 0.2519E-03   C at   69  2
       a =  8.400      CL =  1.2537
      Cm = -0.0833     CD =  0.02407   =>   CDf =  0.00696    CDp =  0.01711
 plradd ia,ip,cpol          131          92  1.02410335E-02

 Point added to stored polar  1
 Save file unspecified or not available
 Dump file unspecified or not available

.OPERva   c>  
.OPERva   c>  
.OPERva   c>   Calculating wake trajectory ...
 Calculating source influence matrix ...

 Solving BL system ...

 Side 1  free  transition at x/c =  0.4737   60
 Side 2 forced transition at x/c =  1.0000   69

   1   rms: 0.7946E-02   max: 0.4717E-01   T at   60  1
       a =  8.450      CL =  1.2574
      Cm = -0.0830     CD =  0.02409   =>   CDf =  0.00696    CDp =  0.01713

 Side 1  free  transition at x/c =  0.4702   60
 Side 2 forced transition at x/c =  1.0000   69

   2   rms: 0.2555E-02   max: -.1336E-01   D at   61  1
       a =  8.450      CL =  1.2587
      Cm = -0.0831     CD =  0.02405   =>   CDf =  0.00699    CDp =  0.01706

 Side 1  free  transition at x/c =  0.4703   60
 Side 2 forced transition at x/c =  1.0000   69

   3   rms: 0.7980E-04   max: 0.3513E-03   C at   69  2
       a =  8.450      CL =  1.2588
      Cm = -0.0832     CD =  0.02405   =>   CDf =  0.00698    CDp =  0.01708
 plradd ia,ip,cpol          132          92  1.02410335E-02

 Point added to stored polar  1
 Save file unspecified or not available
 Dump file unspecified or not available

.OPERva   c>  
.OPERva   c>  
.OPERva   c>   Calculating wake trajectory ...
 Calculating source influence matrix ...

 Solving BL system ...

 Side 1  free  transition at x/c =  0.4703   60
 Side 2 forced transition at x/c =  1.0000   69

   1   rms: 0.9999E-02   max: 0.5194E-01   T at   60  1
       a =  8.500      CL =  1.2648
      Cm = -0.0831     CD =  0.02400   =>   CDf =  0.00698    CDp =  0.01703

 Side 1  free  transition at x/c =  0.4671   60
 Side 2 forced transition at x/c =  1.0000   69

   2   rms: 0.2732E-02   max: -.1531E-01   D at   60  1
       a =  8.500      CL =  1.2662
      Cm = -0.0833     CD =  0.02398   =>   CDf =  0.00704    CDp =  0.01694

 Side 1  free  transition at x/c =  0.4672   60
 Side 2 forced transition at x/c =  1.0000   69

   3   rms: 0.9446E-04   max: 0.3599E-03   C at   69  2
       a =  8.500      CL =  1.2663
      Cm = -0.0834     CD =  0.02398   =>   CDf =  0.00702    CDp =  0.01695
 plradd ia,ip,cpol          133          92  1.02410335E-02

 Point added to stored polar  1
 Save file unspecified or not available
 Dump file unspecified or not available

.OPERva   c>  
.OPERva   c>  
.OPERva   c>   Calculating wake trajectory ...
 Calculating source influence matrix ...

 Solving BL system ...

 Side 1  free  transition at x/c =  0.4671   60
 Side 2 forced transition at x/c =  1.0000   69

   1   rms: 0.1276E-01   max: 0.6222E-01   T at   60  1
       a =  8.550      CL =  1.2747
      Cm = -0.0837     CD =  0.02388   =>   CDf =  0.00703    CDp =  0.01685

 Side 1  free  transition at x/c =  0.4642   59
 Side 2 forced transition at x/c =  1.0000   69

   2   rms: 0.7498E-02   max: 0.4116E-01   D at   61  1
       a =  8.550      CL =  1.2692
      Cm = -0.0829     CD =  0.02405   =>   CDf =  0.00703    CDp =  0.01703

 Side 1  free  transition at x/c =  0.4639   59
 Side 2 forced transition at x/c =  1.0000   69

   3   rms: 0.1883E-03   max: 0.2242E-02   D at   60  1
       a =  8.550      CL =  1.2691
      Cm = -0.0829     CD =  0.02405   =>   CDf =  0.00701    CDp =  0.01703

 Side 1  free  transition at x/c =  0.4639   59
 Side 2 forced transition at x/c =  1.0000   69

   4   rms: 0.6711E-05   max: -.2394E-04   C at   69  2
       a =  8.550      CL =  1.2691
      Cm = -0.0829     CD =  0.02405   =>   CDf =  0.00701    CDp =  0.01703
 plradd ia,ip,cpol          134          92  1.02410335E-02

 Point added to stored polar  1
 Save file unspecified or not available
 Dump file unspecified or not available

.OPERva   c>  
.OPERva   c>  
.OPERva   c>   Calculating wake trajectory ...
 Calculating source influence matrix ...

 Solving BL system ...

 Side 1  free  transition at x/c =  0.4639   59
 Side 2 forced transition at x/c =  1.0000   69

   1   rms: 0.8306E-02   max: 0.4544E-01   T at   59  1
       a =  8.600      CL =  1.2679
      Cm = -0.0819     CD =  0.02423   =>   CDf =  0.00702    CDp =  0.01721

 Side 1  free  transition at x/c =  0.4603   59
 Side 2 forced transition at x/c =  1.0000   69

   2   rms: 0.2215E-02   max: -.1132E-01   D at   61  1
       a =  8.600      CL =  1.2691
      Cm = -0.0820     CD =  0.02418   =>   CDf =  0.00698    CDp =  0.01720

 Side 1  free  transition at x/c =  0.4604   59
 Side 2 forced transition at x/c =  1.0000   69

   3   rms: 0.6659E-04   max: -.2678E-03   D at   79  2
       a =  8.600      CL =  1.2692
      Cm = -0.0821     CD =  0.02418   =>   CDf =  0.00697    CDp =  0.01721
 plradd ia,ip,cpol          135          92  1.02410335E-02

 Point added to stored polar  1
 Save file unspecified or not available
 Dump file unspecified or not available

.OPERva   c>  
.OPERva   c>  
.OPERva   c>   Calculating wake trajectory ...
 Calculating source influence matrix ...

 Solving BL system ...

 Side 1  free  transition at x/c =  0.4604   59
 Side 2 forced transition at x/c =  1.0000   69

   1   rms: 0.7442E-02   max: 0.4485E-01   T at   59  1
       a =  8.650      CL =  1.2704
      Cm = -0.0814     CD =  0.02428   =>   CDf =  0.00697    CDp =  0.01731

 Side 1  free  transition at x/c =  0.4567   59
 Side 2 forced transition at x/c =  1.0000   69

   2   rms: 0.2467E-02   max: -.1209E-01   D at   60  1
       a =  8.650      CL =  1.2717
      Cm = -0.0815     CD =  0.02424   =>   CDf =  0.00697    CDp =  0.01727

 Side 1  free  transition at x/c =  0.4568   59
 Side 2 forced transition at x/c =  1.0000   69

   3   rms: 0.6832E-04   max: -.2727E-03   D at   78  2
       a =  8.650      CL =  1.2717
      Cm = -0.0815     CD =  0.02424   =>   CDf =  0.00695    CDp =  0.01728
 plradd ia,ip,cpol          136          92  1.02410335E-02

 Point added to stored polar  1
 Save file unspecified or not available
 Dump file unspecified or not available

.OPERva   c>  
.OPERva   c>  
.OPERva   c>   Calculating wake trajectory ...
 Calculating source influence matrix ...

 Solving BL system ...

 Side 1  free  transition at x/c =  0.4568   59
 Side 2 forced transition at x/c =  1.0000   69

   1   rms: 0.8190E-02   max: 0.4712E-01   T at   59  1
       a =  8.700      CL =  1.2752
      Cm = -0.0812     CD =  0.02426   =>   CDf =  0.00696    CDp =  0.01731

 Side 1  free  transition at x/c =  0.4533   59
 Side 2 forced transition at x/c =  1.0000   69

   2   rms: 0.2719E-02   max: -.1363E-01   D at   60  1
       a =  8.700      CL =  1.2765
      Cm = -0.0813     CD =  0.02423   =>   CDf =  0.00699    CDp =  0.01724

 Side 1  free  transition at x/c =  0.4534   59
 Side 2 forced transition at x/c =  1.0000   69

   3   rms: 0.8425E-04   max: 0.3256E-03   C at   69  2
       a =  8.700      CL =  1.2766
      Cm = -0.0814     CD =  0.02423   =>   CDf =  0.00697    CDp =  0.01725
 plradd ia,ip,cpol          137          92  1.02410335E-02

 Point added to stored polar  1
 Save file unspecified or not available
 Dump file unspecified or not available

.OPERva   c>  
.OPERva   c>  
.OPERva   c>   Calculating wake trajectory ...
 Calculating source influence matrix ...

 Solving BL system ...

 Side 1  free  transition at x/c =  0.4534   59
 Side 2 forced transition at x/c =  1.0000   69

   1   rms: 0.1007E-01   max: 0.5413E-01   T at   59  1
       a =  8.750      CL =  1.2823
      Cm = -0.0813     CD =  0.02419   =>   CDf =  0.00697    CDp =  0.01721

 Side 1  free  transition at x/c =  0.4501   59
 Side 2 forced transition at x/c =  1.0000   69

   2   rms: 0.2845E-02   max: -.1593E-01   D at   59  1
       a =  8.750      CL =  1.2838
      Cm = -0.0815     CD =  0.02417   =>   CDf =  0.00704    CDp =  0.01713

 Side 1  free  transition at x/c =  0.4501   59
 Side 2 forced transition at x/c =  1.0000   69

   3   rms: 0.1060E-03   max: 0.4364E-03   C at   69  2
       a =  8.750      CL =  1.2838
      Cm = -0.0815     CD =  0.02417   =>   CDf =  0.00703    CDp =  0.01714

 Side 1  free  transition at x/c =  0.4501   59
 Side 2 forced transition at x/c =  1.0000   69

   4   rms: 0.3493E-05   max: 0.1387E-04   C at   69  2
       a =  8.750      CL =  1.2838
      Cm = -0.0815     CD =  0.02417   =>   CDf =  0.00703    CDp =  0.01714
 plradd ia,ip,cpol          138          92  1.02410335E-02

 Point added to stored polar  1
 Save file unspecified or not available
 Dump file unspecified or not available

.OPERva   c>  
.OPERva   c>  
.OPERva   c>   Calculating wake trajectory ...
 Calculating source influence matrix ...

 Solving BL system ...

 Side 1  free  transition at x/c =  0.4501   59
 Side 2 forced transition at x/c =  1.0000   69

   1   rms: 0.1286E-01   max: 0.6417E-01   T at   59  1
       a =  8.800      CL =  1.2922
      Cm = -0.0818     CD =  0.02410   =>   CDf =  0.00662    CDp =  0.01747

 Side 1  free  transition at x/c =  0.4471   59
 Side 2 forced transition at x/c =  1.0000   68
 idif Ue xi dudx           1  8.91870782E-02  4.05120850E-03   22.014931    
 Uenew xinew           2  1.86068844E-03  8.45193863E-05

   2   rms: 0.6945E-01   max: -.1219E+01   T at    2  1   RLX: 0.410
       a =  8.800      CL =  1.2899
      Cm = -0.0817     CD =  0.02395   =>   CDf =  0.00739    CDp =  0.01656

