
 ===================================================
  XFOIL Version 6.99
  Copyright (C) 2000   Mark Drela, Harold Youngren

  This software comes with ABSOLUTELY NO WARRANTY,
    subject to the GNU General Public License.

  Caveat computor
 ===================================================

 File  xfoil.def  not found

   QUIT    Exit program

  .OPER    Direct operating point(s)
  .MDES    Complex mapping design routine
  .QDES    Surface speed design routine
  .GDES    Geometry design routine

   SAVE f  Write airfoil to labeled coordinate file
   PSAV f  Write airfoil to plain coordinate file
   ISAV f  Write airfoil to ISES coordinate file
   MSAV f  Write airfoil to MSES coordinate file
   REVE    Reverse written-airfoil node ordering

   LOAD f  Read buffer airfoil from coordinate file
   NACA i  Set NACA 4,5-digit airfoil and buffer airfoil
   INTE    Set buffer airfoil by interpolating two airfoils
   NORM    Buffer airfoil normalization toggle
   XYCM rr Change CM reference location, currently  0.25000 0.00000

   BEND    Display structural properties of current airfoil

   PCOP    Set current-airfoil panel nodes directly from buffer airfoil points
   PANE    Set current-airfoil panel nodes ( 160 ) based on curvature
  .PPAR    Show/change paneling

  .PLOP    Plotting options

   WDEF f  Write  current-settings file
   RDEF f  Reread current-settings file
   NAME s  Specify new airfoil name
   NINC    Increment name version number

   Z       Zoom    | (available in all menus)
   U       Unzoom  | 

 XFOIL   c>  
 Labeled airfoil file.  Name:  SG6040                                          

 Number of input coordinate points:  81
 Counterclockwise ordering
 Max thickness =     0.160016  at x =   0.353
 Max camber    =     0.025156  at x =   0.582

  LE  x,y  =   0.00009  -0.00040  |   Chord =   0.99991
  TE  x,y  =   1.00000   0.00000  |

 Current airfoil nodes set from buffer airfoil nodes (  81 )

 XFOIL   c>  
  F  disk file
  C  current airfoil  SG6040                                          

  Select source of airfoil "0" ( F C ):  
Enter filename   s>  
  Select source of airfoil "1" ( F C ):  
Enter filename   s>  
 airfoil "0":  SG6040                                          
 airfoil "1":  WORTMANN FX 63-137 AIRFOIL                      

Specify interpolating fraction  0...1   r>   Max thickness =     0.155421  at x =   0.352
 Max camber    =     0.031211  at x =   0.568

Enter new airfoil name   s>  
 Result has been placed in buffer airfoil
 Execute PCOP or PANE to set new current airfoil

 XFOIL   c>  
 Sharp trailing edge

 Paneling parameters used...
   Number of panel nodes       160
   Panel bunching parameter    1.000
   TE/LE panel density ratio   0.150
   Refined-area/LE panel density ratio    0.200
   Top    side refined area x/c limits  1.000 1.000
   Bottom side refined area x/c limits  1.000 1.000

 XFOIL   c>  
 XFOIL   c>  
 XFOIL   c>  
.OPERi   c>  
.OPERi   c>  
 Sonic Cp =   -550.04      Sonic Q/Qinf =    26.096


.OPERi   c>  
 M  =    0.0350
 Re =     70000

.OPERv   c>  
 Polar  1 newly created for accumulation
 Airfoil archived with polar: BlendedAirfoil                                  

Enter  polar save filename  OR  <return> for no file   s>  
 Polar save file will NOT be written

Enter  polar dump filename  OR  <return> for no file   s>  
 Polar dump file will NOT be written

 Polar accumulation enabled

.OPERva   c>   Calculating unit vorticity distributions ...
 Calculating wake trajectory ...
 Calculating source influence matrix ...

 Solving BL system ...

 Initializing BL ...
    side            1  ...
 MRCHUE: Inverse mode at  53     Hk =   3.830
 MRCHUE: Inverse mode at  54     Hk =   4.109
 MRCHUE: Inverse mode at  55     Hk =   4.380
 MRCHUE: Inverse mode at  56     Hk =   4.646
 MRCHUE: Inverse mode at  57     Hk =   4.907
 MRCHUE: Inverse mode at  58     Hk =   5.164
 MRCHUE: Inverse mode at  59     Hk =   5.417
 MRCHUE: Inverse mode at  60     Hk =   5.665
 MRCHUE: Inverse mode at  61     Hk =   5.911
 MRCHUE: Inverse mode at  62     Hk =   6.154
 MRCHUE: Inverse mode at  63     Hk =   6.394
 MRCHUE: Inverse mode at  64     Hk =   6.632
 MRCHUE: Inverse mode at  65     Hk =   6.868
 MRCHUE: Inverse mode at  66     Hk =   7.102
 MRCHUE: Inverse mode at  67     Hk =   7.335
 MRCHUE: Inverse mode at  68     Hk =   7.567
 MRCHUE: Inverse mode at  69     Hk =   7.797
 MRCHUE: Inverse mode at  70     Hk =   8.026
 MRCHUE: Inverse mode at  71     Hk =   8.252
 MRCHUE: Inverse mode at  72     Hk =   8.476
 MRCHUE: Inverse mode at  73     Hk =   8.699
 MRCHUE: Inverse mode at  74     Hk =   8.918
 MRCHUE: Inverse mode at  75     Hk =   9.134
 MRCHUE: Inverse mode at  76     Hk =   9.346
 MRCHUE: Inverse mode at  77     Hk =   9.550
 MRCHUE: Inverse mode at  78     Hk =   9.491
 MRCHUE: Inverse mode at  79     Hk =   8.611
 MRCHUE: Inverse mode at  80     Hk =   7.950
 MRCHUE: Inverse mode at  81     Hk =   7.437
 MRCHUE: Inverse mode at  82     Hk =   7.041
 MRCHUE: Inverse mode at  83     Hk =   6.832
    side            2  ...
 MRCHUE: Inverse mode at  48     Hk =   3.800
 MRCHUE: Inverse mode at  49     Hk =   4.058
 MRCHUE: Inverse mode at  50     Hk =   4.313
 MRCHUE: Inverse mode at  51     Hk =   4.564
 MRCHUE: Inverse mode at  52     Hk =   4.812
 MRCHUE: Inverse mode at  53     Hk =   5.057
 MRCHUE: Inverse mode at  54     Hk =   5.298
 MRCHUE: Inverse mode at  55     Hk =   5.535
 MRCHUE: Convergence failed at  56  side 2    Res =  0.1777E+01
 MRCHUE: Inverse mode at  57     Hk =   5.765
 MRCHUE: Inverse mode at  58     Hk =   5.990
 MRCHUE: Inverse mode at  59     Hk =   6.210
 MRCHUE: Inverse mode at  60     Hk =   6.426
 MRCHUE: Inverse mode at  61     Hk =   6.638
 MRCHUE: Inverse mode at  62     Hk =   6.846
 MRCHUE: Inverse mode at  63     Hk =   7.052
 MRCHUE: Inverse mode at  64     Hk =   7.253
 MRCHUE: Inverse mode at  65     Hk =   7.452
 MRCHUE: Inverse mode at  66     Hk =   7.647
 MRCHUE: Inverse mode at  67     Hk =   7.839
 MRCHUE: Inverse mode at  68     Hk =   8.028
 MRCHUE: Inverse mode at  69     Hk =   8.213
 MRCHUE: Inverse mode at  70     Hk =   8.396
 MRCHUE: Inverse mode at  71     Hk =   8.575
 MRCHUE: Inverse mode at  72     Hk =   8.750
 MRCHUE: Inverse mode at  73     Hk =   8.919
 MRCHUE: Inverse mode at  74     Hk =   9.081
 MRCHUE: Inverse mode at  75     Hk =   9.235
 MRCHUE: Inverse mode at  76     Hk =   9.379
 MRCHUE: Inverse mode at  77     Hk =   9.509
 MRCHUE: Inverse mode at  78     Hk =   9.627
 MRCHUE: Inverse mode at  79     Hk =   9.698
 MRCHUE: Inverse mode at  81     Hk =   5.517
 MRCHUE: Inverse mode at  82     Hk =   4.431
 MRCHUE: Inverse mode at  83     Hk =   3.804
 MRCHUE: Inverse mode at  84     Hk =   3.393
 MRCHUE: Inverse mode at  85     Hk =   3.100

 Side 1  free  transition at x/c =  0.9395   78
 Side 2 forced transition at x/c =  1.0000   79
 idif Ue xi dudx           1  0.19693388      2.50113010E-03   78.737961    
 Uenew xinew           2  5.09394296E-02  6.46948814E-04

   1   rms: 0.5559E+00   max: 0.3994E+01   D at   86  2   RLX: 0.348
       a =  0.000      CL =  0.4916
      Cm = -0.1217     CD =  0.01209   =>   CDf =  0.00929    CDp =  0.00279

 Side 1  free  transition at x/c =  0.8967   75
 Side 2  free  transition at x/c =  0.9625   77
 idif Ue xi dudx           2  0.32042354      4.41944599E-03   72.503105    
 Uenew xinew           3  0.18231636      2.51460075E-03

   2   rms: 0.3344E+00   max: 0.1630E+01   T at   75  1   RLX: 0.834
       a =  0.000      CL =  0.2009
      Cm = -0.0618     CD =  0.02716   =>   CDf =  0.00903    CDp =  0.01813

 Side 1  free  transition at x/c =  0.8595   70
 Side 2  free  transition at x/c =  0.9169   76
 idif Ue xi dudx           2  0.26354277      4.40299511E-03   59.855339    
 Uenew xinew           3  0.13918854      2.32541561E-03

   3   rms: 0.9229E+00   max: -.2148E+01   D at   81  2   RLX: 0.233
       a =  0.000      CL = -0.0452
      Cm = -0.0247     CD =  0.02940   =>   CDf =  0.00829    CDp =  0.02111

 Side 1  free  transition at x/c =  0.8395   67
 Side 2  free  transition at x/c =  0.9253   78

   4   rms: 0.7163E-01   max: 0.7028E+00   T at   67  1
       a =  0.000      CL = -0.0622
      Cm = -0.0194     CD =  0.03539   =>   CDf =  0.00781    CDp =  0.02758

 Side 1  free  transition at x/c =  0.8214   66
 Side 2  free  transition at x/c =  0.8945   76

   5   rms: 0.4858E-01   max: -.2979E+00   D at   80  2
       a =  0.000      CL = -0.0457
      Cm = -0.0223     CD =  0.03560   =>   CDf =  0.00763    CDp =  0.02797

 Side 1  free  transition at x/c =  0.8228   66
 Side 2  free  transition at x/c =  0.9005   77

   6   rms: 0.5366E-02   max: -.5732E-01   D at   76  2
       a =  0.000      CL = -0.0491
      Cm = -0.0216     CD =  0.03585   =>   CDf =  0.00772    CDp =  0.02813

 Side 1  free  transition at x/c =  0.8223   66
 Side 2  free  transition at x/c =  0.8997   77

   7   rms: 0.2748E-03   max: 0.3247E-02   D at   79  2
       a =  0.000      CL = -0.0490
      Cm = -0.0216     CD =  0.03584   =>   CDf =  0.00770    CDp =  0.02814

 Side 1  free  transition at x/c =  0.8223   66
 Side 2  free  transition at x/c =  0.8996   77

   8   rms: 0.4695E-05   max: -.3905E-04   D at    4  2
       a =  0.000      CL = -0.0490
      Cm = -0.0216     CD =  0.03584   =>   CDf =  0.00770    CDp =  0.02814
 plradd ia,ip,cpol            1          77  4.15803418E-02

 Point added to stored polar  1
 Save file unspecified or not available
 Dump file unspecified or not available

.OPERva   c>  
.OPERva   c>  
.OPERva   c>   Calculating wake trajectory ...
 Calculating source influence matrix ...

 Solving BL system ...

 Side 1  free  transition at x/c =  0.8223   66
 Side 2  free  transition at x/c =  0.8996   77

   1   rms: 0.1374E-01   max: -.1180E+00   D at    4  2   RLX: 0.783
       a =  0.050      CL = -0.0461
      Cm = -0.0214     CD =  0.03586   =>   CDf =  0.00770    CDp =  0.02816

 Side 1  free  transition at x/c =  0.8209   66
 Side 2  free  transition at x/c =  0.9016   77

   2   rms: 0.3423E-02   max: -.2985E-01   D at    4  2
       a =  0.050      CL = -0.0446
      Cm = -0.0215     CD =  0.03586   =>   CDf =  0.00771    CDp =  0.02815

 Side 1  free  transition at x/c =  0.8206   66
 Side 2  free  transition at x/c =  0.9023   77

   3   rms: 0.3795E-04   max: -.3115E-03   D at    4  2
       a =  0.050      CL = -0.0446
      Cm = -0.0215     CD =  0.03586   =>   CDf =  0.00771    CDp =  0.02815
 plradd ia,ip,cpol            2          77  4.15803418E-02

 Point added to stored polar  1
 Save file unspecified or not available
 Dump file unspecified or not available

.OPERva   c>  
.OPERva   c>  
.OPERva   c>   Calculating wake trajectory ...
 Calculating source influence matrix ...

 Solving BL system ...

 Side 1  free  transition at x/c =  0.8206   66
 Side 2  free  transition at x/c =  0.9023   77

   1   rms: 0.1417E-01   max: 0.1263E+00   D at    4  2   RLX: 0.782
       a =  0.100      CL = -0.0405
      Cm = -0.0215     CD =  0.03588   =>   CDf =  0.00777    CDp =  0.02811

 Side 1  free  transition at x/c =  0.8192   67
 Side 2  free  transition at x/c =  0.9045   76

   2   rms: 0.3095E-02   max: 0.2737E-01   D at    3  2
       a =  0.100      CL = -0.0389
      Cm = -0.0216     CD =  0.03588   =>   CDf =  0.00773    CDp =  0.02815

 Side 1  free  transition at x/c =  0.8189   67
 Side 2  free  transition at x/c =  0.9052   76

   3   rms: 0.7609E-04   max: -.9681E-03   D at    4  1
       a =  0.100      CL = -0.0389
      Cm = -0.0216     CD =  0.03588   =>   CDf =  0.00773    CDp =  0.02815
 plradd ia,ip,cpol            3          78  4.15803418E-02

 Point added to stored polar  1
 Save file unspecified or not available
 Dump file unspecified or not available

.OPERva   c>  
.OPERva   c>  
.OPERva   c>   Calculating wake trajectory ...
 Calculating source influence matrix ...

 Solving BL system ...

 Side 1  free  transition at x/c =  0.8189   67
 Side 2  free  transition at x/c =  0.9052   76

   1   rms: 0.1108E-01   max: -.5182E-01   D at    7  2   RLX: 0.783
       a =  0.150      CL = -0.0337
      Cm = -0.0217     CD =  0.03589   =>   CDf =  0.00773    CDp =  0.02816

 Side 1  free  transition at x/c =  0.8176   67
 Side 2  free  transition at x/c =  0.9074   76

   2   rms: 0.2661E-02   max: -.1157E-01   D at    7  2
       a =  0.150      CL = -0.0319
      Cm = -0.0219     CD =  0.03590   =>   CDf =  0.00775    CDp =  0.02815

 Side 1  free  transition at x/c =  0.8173   67
 Side 2  free  transition at x/c =  0.9082   76

   3   rms: 0.2284E-04   max: -.1153E-03   D at   68  1
       a =  0.150      CL = -0.0319
      Cm = -0.0219     CD =  0.03590   =>   CDf =  0.00776    CDp =  0.02814
 plradd ia,ip,cpol            4          78  4.15803418E-02

 Point added to stored polar  1
 Save file unspecified or not available
 Dump file unspecified or not available

.OPERva   c>  
.OPERva   c>  
.OPERva   c>   Calculating wake trajectory ...
 Calculating source influence matrix ...

 Solving BL system ...

 Side 1  free  transition at x/c =  0.8173   67
 Side 2  free  transition at x/c =  0.9082   76

   1   rms: 0.1250E-01   max: -.9468E-01   D at    3  2   RLX: 0.785
       a =  0.200      CL = -0.0263
      Cm = -0.0221     CD =  0.03591   =>   CDf =  0.00776    CDp =  0.02815

 Side 1  free  transition at x/c =  0.8162   67
 Side 2  free  transition at x/c =  0.9104   76

   2   rms: 0.2987E-02   max: -.2321E-01   D at    3  2
       a =  0.200      CL = -0.0244
      Cm = -0.0223     CD =  0.03591   =>   CDf =  0.00777    CDp =  0.02814

 Side 1  free  transition at x/c =  0.8160   67
 Side 2  free  transition at x/c =  0.9111   76

   3   rms: 0.2746E-04   max: -.2098E-03   D at   78  2
       a =  0.200      CL = -0.0244
      Cm = -0.0223     CD =  0.03591   =>   CDf =  0.00778    CDp =  0.02813
 plradd ia,ip,cpol            5          78  4.15803418E-02

 Point added to stored polar  1
 Save file unspecified or not available
 Dump file unspecified or not available

.OPERva   c>  
.OPERva   c>  
.OPERva   c>   Calculating wake trajectory ...
 Calculating source influence matrix ...

 Solving BL system ...

 Side 1  free  transition at x/c =  0.8160   67
 Side 2  free  transition at x/c =  0.9111   76

   1   rms: 0.2055E-01   max: 0.1746E+00   D at    3  2   RLX: 0.788
       a =  0.250      CL = -0.0183
      Cm = -0.0226     CD =  0.03592   =>   CDf =  0.00778    CDp =  0.02814

 Side 1  free  transition at x/c =  0.8150   67
 Side 2  free  transition at x/c =  0.9135   76

   2   rms: 0.6902E-02   max: -.7893E-01   D at   76  2
       a =  0.250      CL = -0.0171
      Cm = -0.0227     CD =  0.03593   =>   CDf =  0.00781    CDp =  0.02813

 Side 1  free  transition at x/c =  0.8147   67
 Side 2  free  transition at x/c =  0.9145   77

   3   rms: 0.4149E-02   max: -.6843E-01   D at   76  2
       a =  0.250      CL = -0.0162
      Cm = -0.0227     CD =  0.03594   =>   CDf =  0.00781    CDp =  0.02813

 Side 1  free  transition at x/c =  0.8147   67
 Side 2  free  transition at x/c =  0.9143   77

   4   rms: 0.3715E-03   max: 0.3456E-02   D at   79  2
       a =  0.250      CL = -0.0160
      Cm = -0.0228     CD =  0.03593   =>   CDf =  0.00781    CDp =  0.02812

 Side 1  free  transition at x/c =  0.8147   67
 Side 2  free  transition at x/c =  0.9142   77

   5   rms: 0.4388E-05   max: -.3375E-04   D at   92  2
       a =  0.250      CL = -0.0160
      Cm = -0.0228     CD =  0.03593   =>   CDf =  0.00781    CDp =  0.02812
 plradd ia,ip,cpol            6          78  4.15803418E-02

 Point added to stored polar  1
 Save file unspecified or not available
 Dump file unspecified or not available

.OPERva   c>  
.OPERva   c>  
.OPERva   c>   Calculating wake trajectory ...
 Calculating source influence matrix ...

 Solving BL system ...

 Side 1  free  transition at x/c =  0.8147   67
 Side 2  free  transition at x/c =  0.9142   77

   1   rms: 0.1521E-01   max: -.1087E+00   D at    3  1   RLX: 0.794
       a =  0.300      CL = -0.0075
      Cm = -0.0234     CD =  0.03594   =>   CDf =  0.00781    CDp =  0.02814

 Side 1  free  transition at x/c =  0.8138   67
 Side 2  free  transition at x/c =  0.9161   77

   2   rms: 0.3477E-02   max: -.2325E-01   D at    3  2
       a =  0.300      CL = -0.0049
      Cm = -0.0236     CD =  0.03596   =>   CDf =  0.00782    CDp =  0.02814

 Side 1  free  transition at x/c =  0.8136   67
 Side 2  free  transition at x/c =  0.9166   77

   3   rms: 0.3761E-04   max: -.1715E-03   D at    3  2
       a =  0.300      CL = -0.0049
      Cm = -0.0236     CD =  0.03596   =>   CDf =  0.00783    CDp =  0.02814
 plradd ia,ip,cpol            7          78  4.87532131E-02

 Point added to stored polar  1
 Save file unspecified or not available
 Dump file unspecified or not available

.OPERva   c>  
.OPERva   c>  
.OPERva   c>   Calculating wake trajectory ...
 Calculating source influence matrix ...

 Solving BL system ...

 Side 1  free  transition at x/c =  0.8136   67
 Side 2  free  transition at x/c =  0.9166   77

   1   rms: 0.1337E-01   max: -.3963E-01   T at   78  2   RLX: 0.801
       a =  0.350      CL =  0.0040
      Cm = -0.0243     CD =  0.03599   =>   CDf =  0.00783    CDp =  0.02816

 Side 1  free  transition at x/c =  0.8129   67
 Side 2  free  transition at x/c =  0.9186   77

   2   rms: 0.2922E-02   max: -.7328E-02   T at   77  2
       a =  0.350      CL =  0.0065
      Cm = -0.0246     CD =  0.03601   =>   CDf =  0.00785    CDp =  0.02816

 Side 1  free  transition at x/c =  0.8127   67
 Side 2  free  transition at x/c =  0.9191   77

   3   rms: 0.3181E-04   max: -.1025E-03   D at   91  2
       a =  0.350      CL =  0.0065
      Cm = -0.0246     CD =  0.03601   =>   CDf =  0.00785    CDp =  0.02816
 plradd ia,ip,cpol            8          78  4.87532131E-02

 Point added to stored polar  1
 Save file unspecified or not available
 Dump file unspecified or not available

.OPERva   c>  
.OPERva   c>  
.OPERva   c>   Calculating wake trajectory ...
 Calculating source influence matrix ...

 Solving BL system ...

 Side 1  free  transition at x/c =  0.8127   67
 Side 2  free  transition at x/c =  0.9191   77

   1   rms: 0.1522E-01   max: -.1142E+00   D at    3  1   RLX: 0.809
       a =  0.400      CL =  0.0165
      Cm = -0.0254     CD =  0.03604   =>   CDf =  0.00785    CDp =  0.02819

 Side 1  free  transition at x/c =  0.8120   66
 Side 2  free  transition at x/c =  0.9211   77

   2   rms: 0.2266E-01   max: 0.1314E+00   T at   66  1
       a =  0.400      CL = -0.0061
      Cm = -0.0224     CD =  0.03621   =>   CDf =  0.00788    CDp =  0.02833

 Side 1  free  transition at x/c =  0.8090   66
 Side 2  free  transition at x/c =  0.9221   77

   3   rms: 0.9841E-02   max: -.2839E-01   D at   92  2
       a =  0.400      CL =  0.0034
      Cm = -0.0236     CD =  0.03606   =>   CDf =  0.00783    CDp =  0.02823

 Side 1  free  transition at x/c =  0.8101   66
 Side 2  free  transition at x/c =  0.9220   77

   4   rms: 0.1387E-02   max: 0.4412E-02   D at   79  2
       a =  0.400      CL =  0.0048
      Cm = -0.0238     CD =  0.03608   =>   CDf =  0.00785    CDp =  0.02823

 Side 1  free  transition at x/c =  0.8102   66
 Side 2  free  transition at x/c =  0.9219   77

   5   rms: 0.6257E-04   max: 0.3692E-03   D at   79  2
       a =  0.400      CL =  0.0049
      Cm = -0.0238     CD =  0.03608   =>   CDf =  0.00785    CDp =  0.02823
 plradd ia,ip,cpol            9          78  4.87532131E-02

 Point added to stored polar  1
 Save file unspecified or not available
 Dump file unspecified or not available

.OPERva   c>  
.OPERva   c>  
.OPERva   c>   Calculating wake trajectory ...
 Calculating source influence matrix ...

 Solving BL system ...

 Side 1  free  transition at x/c =  0.8102   66
 Side 2  free  transition at x/c =  0.9219   77

   1   rms: 0.1423E-01   max: 0.1306E+00   D at    3  1   RLX: 0.778
       a =  0.450      CL =  0.0013
      Cm = -0.0229     CD =  0.03616   =>   CDf =  0.00785    CDp =  0.02831

 Side 1  free  transition at x/c =  0.8079   66
 Side 2  free  transition at x/c =  0.9243   77

   2   rms: 0.3612E-02   max: 0.2812E-01   D at    3  1
       a =  0.450      CL =  0.0036
      Cm = -0.0231     CD =  0.03614   =>   CDf =  0.00785    CDp =  0.02829

 Side 1  free  transition at x/c =  0.8077   66
 Side 2  free  transition at x/c =  0.9249   77

   3   rms: 0.3398E-04   max: 0.2223E-03   D at   79  2
       a =  0.450      CL =  0.0036
      Cm = -0.0231     CD =  0.03615   =>   CDf =  0.00785    CDp =  0.02829
 plradd ia,ip,cpol           10          78  4.87532131E-02

 Point added to stored polar  1
 Save file unspecified or not available
 Dump file unspecified or not available

.OPERva   c>  
.OPERva   c>  
.OPERva   c>   Calculating wake trajectory ...
 Calculating source influence matrix ...

 Solving BL system ...

 Side 1  free  transition at x/c =  0.8077   66
 Side 2  free  transition at x/c =  0.9249   77

   1   rms: 0.1369E-01   max: -.1424E+00   D at    3  2   RLX: 0.777
       a =  0.500      CL =  0.0047
      Cm = -0.0229     CD =  0.03620   =>   CDf =  0.00785    CDp =  0.02835

 Side 1  free  transition at x/c =  0.8061   66
 Side 2  free  transition at x/c =  0.9273   77

   2   rms: 0.3376E-02   max: -.3485E-01   D at    3  2
       a =  0.500      CL =  0.0058
      Cm = -0.0229     CD =  0.03619   =>   CDf =  0.00786    CDp =  0.02833

 Side 1  free  transition at x/c =  0.8057   66
 Side 2  free  transition at x/c =  0.9280   77

   3   rms: 0.2706E-04   max: -.2213E-03   D at    3  2
       a =  0.500      CL =  0.0058
      Cm = -0.0229     CD =  0.03619   =>   CDf =  0.00786    CDp =  0.02833
 plradd ia,ip,cpol           11          78  4.87532131E-02

 Point added to stored polar  1
 Save file unspecified or not available
 Dump file unspecified or not available

.OPERva   c>  
.OPERva   c>  
.OPERva   c>   Calculating wake trajectory ...
 Calculating source influence matrix ...

 Solving BL system ...

 Side 1  free  transition at x/c =  0.8057   66
 Side 2  free  transition at x/c =  0.9280   77

   1   rms: 0.1026E-01   max: 0.7933E-01   D at    3  2   RLX: 0.774
       a =  0.550      CL =  0.0081
      Cm = -0.0228     CD =  0.03623   =>   CDf =  0.00786    CDp =  0.02837

 Side 1  free  transition at x/c =  0.8042   66
 Side 2  free  transition at x/c =  0.9303   78

   2   rms: 0.6482E-02   max: -.7775E-01   D at   77  2
       a =  0.550      CL =  0.0115
      Cm = -0.0232     CD =  0.03624   =>   CDf =  0.00787    CDp =  0.02837

 Side 1  free  transition at x/c =  0.8039   66
 Side 2  free  transition at x/c =  0.9306   78

   3   rms: 0.5438E-03   max: 0.3124E-02   D at   79  2
       a =  0.550      CL =  0.0121
      Cm = -0.0233     CD =  0.03625   =>   CDf =  0.00787    CDp =  0.02838

 Side 1  free  transition at x/c =  0.8039   66
 Side 2  free  transition at x/c =  0.9305   78

   4   rms: 0.8546E-05   max: 0.6082E-04   D at   80  2
       a =  0.550      CL =  0.0121
      Cm = -0.0233     CD =  0.03625   =>   CDf =  0.00787    CDp =  0.02838
 plradd ia,ip,cpol           12          78  4.87532131E-02

 Point added to stored polar  1
 Save file unspecified or not available
 Dump file unspecified or not available

.OPERva   c>  
.OPERva   c>  
.OPERva   c>   Calculating wake trajectory ...
 Calculating source influence matrix ...

 Solving BL system ...

 Side 1  free  transition at x/c =  0.8039   66
 Side 2  free  transition at x/c =  0.9305   78

   1   rms: 0.1169E-01   max: -.3830E-01   T at   79  2   RLX: 0.780
       a =  0.600      CL =  0.0183
      Cm = -0.0237     CD =  0.03630   =>   CDf =  0.00787    CDp =  0.02843

 Side 1  free  transition at x/c =  0.8026   66
 Side 2  free  transition at x/c =  0.9323   78

   2   rms: 0.2741E-02   max: -.7764E-02   T at   79  2
       a =  0.600      CL =  0.0205
      Cm = -0.0239     CD =  0.03631   =>   CDf =  0.00788    CDp =  0.02843

 Side 1  free  transition at x/c =  0.8023   66
 Side 2  free  transition at x/c =  0.9328   78

   3   rms: 0.2359E-04   max: -.9492E-04   D at   68  1
       a =  0.600      CL =  0.0205
      Cm = -0.0239     CD =  0.03631   =>   CDf =  0.00789    CDp =  0.02842
 plradd ia,ip,cpol           13          78  0.25820407    

 Point added to stored polar  1
 Save file unspecified or not available
 Dump file unspecified or not available

.OPERva   c>  
.OPERva   c>  
.OPERva   c>   Calculating wake trajectory ...
 Calculating source influence matrix ...

 Solving BL system ...

 Side 1  free  transition at x/c =  0.8023   66
 Side 2  free  transition at x/c =  0.9328   78

   1   rms: 0.1519E-01   max: -.1174E+00   D at    3  2   RLX: 0.785
       a =  0.650      CL =  0.0279
      Cm = -0.0245     CD =  0.03635   =>   CDf =  0.00789    CDp =  0.02847

 Side 1  free  transition at x/c =  0.8010   66
 Side 2  free  transition at x/c =  0.9348   78

   2   rms: 0.3726E-02   max: 0.2828E-01   D at    4  2
       a =  0.650      CL =  0.0304
      Cm = -0.0248     CD =  0.03636   =>   CDf =  0.00795    CDp =  0.02841

 Side 1  free  transition at x/c =  0.8007   67
 Side 2  free  transition at x/c =  0.9353   77

   3   rms: 0.4001E-02   max: -.6673E-01   T at    2  1
       a =  0.650      CL =  0.0304
      Cm = -0.0248     CD =  0.03636   =>   CDf =  0.00791    CDp =  0.02845

 Side 1  free  transition at x/c =  0.8007   67
 Side 2  free  transition at x/c =  0.9353   77

   4   rms: 0.7536E-03   max: 0.1001E-01   D at    4  1
       a =  0.650      CL =  0.0304
      Cm = -0.0248     CD =  0.03636   =>   CDf =  0.00791    CDp =  0.02845

 Side 1  free  transition at x/c =  0.8007   67
 Side 2  free  transition at x/c =  0.9353   77

   5   rms: 0.5746E-05   max: -.7214E-04   D at    4  1
       a =  0.650      CL =  0.0304
      Cm = -0.0248     CD =  0.03636   =>   CDf =  0.00791    CDp =  0.02845
 plradd ia,ip,cpol           14          79  0.25820407    

 Point added to stored polar  1
 Save file unspecified or not available
 Dump file unspecified or not available

.OPERva   c>  
.OPERva   c>  
.OPERva   c>   Calculating wake trajectory ...
 Calculating source influence matrix ...

 Solving BL system ...

 Side 1  free  transition at x/c =  0.8007   67
 Side 2  free  transition at x/c =  0.9353   77

   1   rms: 0.1359E-01   max: -.9880E-01   D at    3  2   RLX: 0.790
       a =  0.700      CL =  0.0382
      Cm = -0.0254     CD =  0.03641   =>   CDf =  0.00791    CDp =  0.02850

 Side 1  free  transition at x/c =  0.7997   67
 Side 2  free  transition at x/c =  0.9373   77

   2   rms: 0.3137E-02   max: -.2324E-01   D at    3  2
       a =  0.700      CL =  0.0404
      Cm = -0.0256     CD =  0.03642   =>   CDf =  0.00793    CDp =  0.02849

 Side 1  free  transition at x/c =  0.7994   67
 Side 2  free  transition at x/c =  0.9378   77

   3   rms: 0.2585E-04   max: -.1231E-03   D at    3  2
       a =  0.700      CL =  0.0405
      Cm = -0.0257     CD =  0.03642   =>   CDf =  0.00793    CDp =  0.02849
 plradd ia,ip,cpol           15          79  0.25820407    

 Point added to stored polar  1
 Save file unspecified or not available
 Dump file unspecified or not available

.OPERva   c>  
.OPERva   c>  
.OPERva   c>   Calculating wake trajectory ...
 Calculating source influence matrix ...

 Solving BL system ...

 Side 1  free  transition at x/c =  0.7994   67
 Side 2  free  transition at x/c =  0.9378   77

   1   rms: 0.1238E-01   max: -.2653E-01   T at   77  2   RLX: 0.796
       a =  0.750      CL =  0.0489
      Cm = -0.0264     CD =  0.03645   =>   CDf =  0.00793    CDp =  0.02852

 Side 1  free  transition at x/c =  0.7984   67
 Side 2  free  transition at x/c =  0.9398   77

   2   rms: 0.2667E-02   max: -.5368E-02   T at   77  2
       a =  0.750      CL =  0.0513
      Cm = -0.0266     CD =  0.03646   =>   CDf =  0.00795    CDp =  0.02851

 Side 1  free  transition at x/c =  0.7982   67
 Side 2  free  transition at x/c =  0.9403   77

   3   rms: 0.3169E-04   max: 0.1594E-03   D at   79  2
       a =  0.750      CL =  0.0513
      Cm = -0.0266     CD =  0.03646   =>   CDf =  0.00796    CDp =  0.02850
 plradd ia,ip,cpol           16          79  0.25820407    

 Point added to stored polar  1
 Save file unspecified or not available
 Dump file unspecified or not available

.OPERva   c>  
.OPERva   c>  
.OPERva   c>   Calculating wake trajectory ...
 Calculating source influence matrix ...

 Solving BL system ...

 Side 1  free  transition at x/c =  0.7982   67
 Side 2  free  transition at x/c =  0.9403   77

   1   rms: 0.1652E-01   max: -.1619E+00   D at    3  1   RLX: 0.802
       a =  0.800      CL =  0.0600
      Cm = -0.0274     CD =  0.03649   =>   CDf =  0.00796    CDp =  0.02853

 Side 1  free  transition at x/c =  0.7973   67
 Side 2  free  transition at x/c =  0.9423   77

   2   rms: 0.3455E-02   max: -.3080E-01   D at    3  1
       a =  0.800      CL =  0.0621
      Cm = -0.0276     CD =  0.03650   =>   CDf =  0.00798    CDp =  0.02852

 Side 1  free  transition at x/c =  0.7971   67
 Side 2  free  transition at x/c =  0.9429   77

   3   rms: 0.2715E-04   max: -.1303E-03   D at    4  1
       a =  0.800      CL =  0.0622
      Cm = -0.0276     CD =  0.03650   =>   CDf =  0.00798    CDp =  0.02852
 plradd ia,ip,cpol           17          79  0.25820407    

 Point added to stored polar  1
 Save file unspecified or not available
 Dump file unspecified or not available

.OPERva   c>  
.OPERva   c>  
.OPERva   c>   Calculating wake trajectory ...
 Calculating source influence matrix ...

 Solving BL system ...

 Side 1  free  transition at x/c =  0.7971   67
 Side 2  free  transition at x/c =  0.9429   77

   1   rms: 0.1719E-01   max: 0.1642E+00   D at    3  1   RLX: 0.809
       a =  0.850      CL =  0.0713
      Cm = -0.0284     CD =  0.03651   =>   CDf =  0.00798    CDp =  0.02853

 Side 1  free  transition at x/c =  0.7963   67
 Side 2  free  transition at x/c =  0.9447   78

   2   rms: 0.7576E-02   max: -.8545E-01   D at   77  2
       a =  0.850      CL =  0.0761
      Cm = -0.0290     CD =  0.03652   =>   CDf =  0.00800    CDp =  0.02852

 Side 1  free  transition at x/c =  0.7961   67
 Side 2  free  transition at x/c =  0.9450   78

   3   rms: 0.8176E-03   max: 0.4998E-02   D at   79  2
       a =  0.850      CL =  0.0769
      Cm = -0.0291     CD =  0.03655   =>   CDf =  0.00801    CDp =  0.02854

 Side 1  free  transition at x/c =  0.7961   67
 Side 2  free  transition at x/c =  0.9448   78

   4   rms: 0.1272E-04   max: 0.7456E-04   D at   79  2
       a =  0.850      CL =  0.0769
      Cm = -0.0291     CD =  0.03655   =>   CDf =  0.00801    CDp =  0.02854
 plradd ia,ip,cpol           18          79  0.25820407    

 Point added to stored polar  1
 Save file unspecified or not available
 Dump file unspecified or not available

.OPERva   c>  
.OPERva   c>  
.OPERva   c>   Calculating wake trajectory ...
 Calculating source influence matrix ...

 Solving BL system ...

 Side 1  free  transition at x/c =  0.7961   67
 Side 2  free  transition at x/c =  0.9448   78

   1   rms: 0.1578E-01   max: 0.2901E-01   D at   81  2   RLX: 0.826
       a =  0.900      CL =  0.0895
      Cm = -0.0305     CD =  0.03659   =>   CDf =  0.00801    CDp =  0.02859

 Side 1  free  transition at x/c =  0.7954   66
 Side 2  free  transition at x/c =  0.9462   78

   2   rms: 0.2107E-01   max: 0.1299E+00   T at   66  1
       a =  0.900      CL =  0.0695
      Cm = -0.0280     CD =  0.03689   =>   CDf =  0.00803    CDp =  0.02886

 Side 1  free  transition at x/c =  0.7924   66
 Side 2  free  transition at x/c =  0.9475   78

   3   rms: 0.1025E-01   max: -.4014E-01   T at   66  1
       a =  0.900      CL =  0.0787
      Cm = -0.0291     CD =  0.03667   =>   CDf =  0.00798    CDp =  0.02869

 Side 1  free  transition at x/c =  0.7936   66
 Side 2  free  transition at x/c =  0.9472   78

   4   rms: 0.2659E-02   max: 0.7257E-02   D at   80  2
       a =  0.900      CL =  0.0814
      Cm = -0.0294     CD =  0.03669   =>   CDf =  0.00801    CDp =  0.02868

 Side 1  free  transition at x/c =  0.7939   66
 Side 2  free  transition at x/c =  0.9470   78

   5   rms: 0.2504E-03   max: 0.1159E-02   D at   79  2
       a =  0.900      CL =  0.0817
      Cm = -0.0295     CD =  0.03670   =>   CDf =  0.00801    CDp =  0.02868

 Side 1  free  transition at x/c =  0.7939   66
 Side 2  free  transition at x/c =  0.9470   78

   6   rms: 0.1554E-04   max: 0.7378E-04   D at   79  2
       a =  0.900      CL =  0.0817
      Cm = -0.0295     CD =  0.03670   =>   CDf =  0.00801    CDp =  0.02868
 plradd ia,ip,cpol           19          79  0.25820407    

 Point added to stored polar  1
 Save file unspecified or not available
 Dump file unspecified or not available

.OPERva   c>  
.OPERva   c>  
.OPERva   c>   Calculating wake trajectory ...
 Calculating source influence matrix ...

 Solving BL system ...

 Side 1  free  transition at x/c =  0.7939   66
 Side 2  free  transition at x/c =  0.9470   78

   1   rms: 0.1467E-01   max: 0.1374E+00   T at   66  1   RLX: 0.795
       a =  0.950      CL =  0.0763
      Cm = -0.0286     CD =  0.03692   =>   CDf =  0.00801    CDp =  0.02891

 Side 1  free  transition at x/c =  0.7909   66
 Side 2  free  transition at x/c =  0.9492   78

   2   rms: 0.5818E-02   max: -.1610E-01   D at   92  2
       a =  0.950      CL =  0.0816
      Cm = -0.0292     CD =  0.03683   =>   CDf =  0.00799    CDp =  0.02884

 Side 1  free  transition at x/c =  0.7910   66
 Side 2  free  transition at x/c =  0.9497   78

   3   rms: 0.3689E-03   max: 0.2635E-02   D at   80  2
       a =  0.950      CL =  0.0819
      Cm = -0.0292     CD =  0.03685   =>   CDf =  0.00801    CDp =  0.02885

 Side 1  free  transition at x/c =  0.7910   66
 Side 2  free  transition at x/c =  0.9496   78

   4   rms: 0.1269E-04   max: 0.7880E-04   D at   80  2
       a =  0.950      CL =  0.0819
      Cm = -0.0292     CD =  0.03685   =>   CDf =  0.00801    CDp =  0.02885
 plradd ia,ip,cpol           20          79  0.25820407    

 Point added to stored polar  1
 Save file unspecified or not available
 Dump file unspecified or not available

.OPERva   c>  
.OPERva   c>  
.OPERva   c>   Calculating wake trajectory ...
 Calculating source influence matrix ...

 Solving BL system ...

 Side 1  free  transition at x/c =  0.7910   66
 Side 2  free  transition at x/c =  0.9496   78

   1   rms: 0.1027E-01   max: 0.6683E-01   T at   66  1   RLX: 0.802
       a =  1.000      CL =  0.0858
      Cm = -0.0295     CD =  0.03698   =>   CDf =  0.00801    CDp =  0.02897

 Side 1  free  transition at x/c =  0.7892   66
 Side 2  free  transition at x/c =  0.9517   78

   2   rms: 0.2466E-02   max: -.5473E-02   T at   79  2
       a =  1.000      CL =  0.0878
      Cm = -0.0297     CD =  0.03697   =>   CDf =  0.00801    CDp =  0.02896

 Side 1  free  transition at x/c =  0.7889   66
 Side 2  free  transition at x/c =  0.9522   78

   3   rms: 0.3182E-04   max: 0.1734E-03   D at   80  2
       a =  1.000      CL =  0.0878
      Cm = -0.0297     CD =  0.03697   =>   CDf =  0.00801    CDp =  0.02896
 plradd ia,ip,cpol           21          79  0.25820407    

 Point added to stored polar  1
 Save file unspecified or not available
 Dump file unspecified or not available

.OPERva   c>  
.OPERva   c>  
.OPERva   c>   Calculating wake trajectory ...
 Calculating source influence matrix ...

 Solving BL system ...

 Side 1  free  transition at x/c =  0.7889   66
 Side 2  free  transition at x/c =  0.9522   78

   1   rms: 0.1221E-01   max: -.1010E+00   D at    5  2   RLX: 0.805
       a =  1.050      CL =  0.0934
      Cm = -0.0302     CD =  0.03707   =>   CDf =  0.00801    CDp =  0.02905

 Side 1  free  transition at x/c =  0.7873   66
 Side 2  free  transition at x/c =  0.9542   78

   2   rms: 0.2711E-02   max: -.2133E-01   D at    5  2
       a =  1.050      CL =  0.0953
      Cm = -0.0304     CD =  0.03706   =>   CDf =  0.00802    CDp =  0.02904

 Side 1  free  transition at x/c =  0.7871   66
 Side 2  free  transition at x/c =  0.9547   78

   3   rms: 0.2151E-04   max: 0.9957E-04   D at   80  2
       a =  1.050      CL =  0.0953
      Cm = -0.0304     CD =  0.03706   =>   CDf =  0.00803    CDp =  0.02904
 plradd ia,ip,cpol           22          79  0.25820407    

 Point added to stored polar  1
 Save file unspecified or not available
 Dump file unspecified or not available

.OPERva   c>  
.OPERva   c>  
.OPERva   c>   Calculating wake trajectory ...
 Calculating source influence matrix ...

 Solving BL system ...

 Side 1  free  transition at x/c =  0.7871   66
 Side 2  free  transition at x/c =  0.9547   78

   1   rms: 0.1389E-01   max: 0.1041E+00   D at    5  2   RLX: 0.808
       a =  1.100      CL =  0.1018
      Cm = -0.0310     CD =  0.03714   =>   CDf =  0.00803    CDp =  0.02912

 Side 1  free  transition at x/c =  0.7857   66
 Side 2  free  transition at x/c =  0.9566   78

   2   rms: 0.2811E-02   max: 0.2101E-01   D at    5  2
       a =  1.100      CL =  0.1037
      Cm = -0.0311     CD =  0.03714   =>   CDf =  0.00804    CDp =  0.02910

 Side 1  free  transition at x/c =  0.7854   66
 Side 2  free  transition at x/c =  0.9571   78

   3   rms: 0.2899E-04   max: 0.1308E-03   D at   80  2
       a =  1.100      CL =  0.1037
      Cm = -0.0311     CD =  0.03714   =>   CDf =  0.00804    CDp =  0.02910
 plradd ia,ip,cpol           23          79  0.24290843    

 Point added to stored polar  1
 Save file unspecified or not available
 Dump file unspecified or not available

.OPERva   c>  
.OPERva   c>  
.OPERva   c>   Calculating wake trajectory ...
 Calculating source influence matrix ...

 Solving BL system ...

 Side 1  free  transition at x/c =  0.7854   66
 Side 2  free  transition at x/c =  0.9571   78

   1   rms: 0.1511E-01   max: 0.1601E+00   D at    3  1   RLX: 0.812
       a =  1.150      CL =  0.1111
      Cm = -0.0318     CD =  0.03719   =>   CDf =  0.00804    CDp =  0.02915

 Side 1  free  transition at x/c =  0.7842   66
 Side 2  free  transition at x/c =  0.9588   79

   2   rms: 0.8088E-02   max: -.9406E-01   D at   78  2
       a =  1.150      CL =  0.1156
      Cm = -0.0324     CD =  0.03720   =>   CDf =  0.00805    CDp =  0.02915

 Side 1  free  transition at x/c =  0.7840   66
 Side 2  free  transition at x/c =  0.9591   79

   3   rms: 0.7136E-03   max: 0.5396E-02   C at   79  2
       a =  1.150      CL =  0.1162
      Cm = -0.0325     CD =  0.03722   =>   CDf =  0.00806    CDp =  0.02917

 Side 1  free  transition at x/c =  0.7840   66
 Side 2  free  transition at x/c =  0.9589   79

   4   rms: 0.7653E-05   max: 0.5180E-04   D at    4  2
       a =  1.150      CL =  0.1162
      Cm = -0.0325     CD =  0.03722   =>   CDf =  0.00806    CDp =  0.02917
 plradd ia,ip,cpol           24          79  0.24290843    

 Point added to stored polar  1
 Save file unspecified or not available
 Dump file unspecified or not available

.OPERva   c>  
.OPERva   c>  
.OPERva   c>   Calculating wake trajectory ...
 Calculating source influence matrix ...

 Solving BL system ...

 Side 1  free  transition at x/c =  0.7840   66
 Side 2  free  transition at x/c =  0.9589   79

   1   rms: 0.1607E-01   max: 0.2531E-01   D at   81  2   RLX: 0.827
       a =  1.200      CL =  0.1276
      Cm = -0.0338     CD =  0.03729   =>   CDf =  0.00809    CDp =  0.02920

 Side 1  free  transition at x/c =  0.7828   67
 Side 2  free  transition at x/c =  0.9603   78

   2   rms: 0.3403E-02   max: 0.2340E-01   D at    3  1
       a =  1.200      CL =  0.1303
      Cm = -0.0341     CD =  0.03729   =>   CDf =  0.00808    CDp =  0.02922

 Side 1  free  transition at x/c =  0.7827   67
 Side 2  free  transition at x/c =  0.9605   78

   3   rms: 0.2511E-03   max: 0.3160E-02   D at    4  1
       a =  1.200      CL =  0.1304
      Cm = -0.0341     CD =  0.03730   =>   CDf =  0.00808    CDp =  0.02922

 Side 1  free  transition at x/c =  0.7827   67
 Side 2  free  transition at x/c =  0.9605   78

   4   rms: 0.3065E-05   max: 0.2123E-04   D at   80  2
       a =  1.200      CL =  0.1304
      Cm = -0.0341     CD =  0.03730   =>   CDf =  0.00808    CDp =  0.02922
 plradd ia,ip,cpol           25          80  0.24290843    

 Point added to stored polar  1
 Save file unspecified or not available
 Dump file unspecified or not available

.OPERva   c>  
.OPERva   c>  
.OPERva   c>   Calculating wake trajectory ...
 Calculating source influence matrix ...

 Solving BL system ...

 Side 1  free  transition at x/c =  0.7827   67
 Side 2  free  transition at x/c =  0.9605   78

   1   rms: 0.1589E-01   max: 0.2221E-01   D at   80  2   RLX: 0.839
       a =  1.250      CL =  0.1423
      Cm = -0.0355     CD =  0.03735   =>   CDf =  0.00808    CDp =  0.02927

 Side 1  free  transition at x/c =  0.7816   67
 Side 2  free  transition at x/c =  0.9619   78

   2   rms: 0.2808E-02   max: 0.3551E-02   D at   80  2
       a =  1.250      CL =  0.1449
      Cm = -0.0358     CD =  0.03735   =>   CDf =  0.00810    CDp =  0.02926

 Side 1  free  transition at x/c =  0.7815   67
 Side 2  free  transition at x/c =  0.9622   78

   3   rms: 0.7627E-04   max: 0.5687E-03   D at   79  2
       a =  1.250      CL =  0.1450
      Cm = -0.0358     CD =  0.03736   =>   CDf =  0.00810    CDp =  0.02926
 plradd ia,ip,cpol           26          80  0.24290843    

 Point added to stored polar  1
 Save file unspecified or not available
 Dump file unspecified or not available

.OPERva   c>  
.OPERva   c>  
.OPERva   c>   Calculating wake trajectory ...
 Calculating source influence matrix ...

 Solving BL system ...

 Side 1  free  transition at x/c =  0.7815   67
 Side 2  free  transition at x/c =  0.9622   78

   1   rms: 0.1804E-01   max: 0.1470E+00   D at    3  2   RLX: 0.852
       a =  1.300      CL =  0.1576
      Cm = -0.0372     CD =  0.03740   =>   CDf =  0.00810    CDp =  0.02930

 Side 1  free  transition at x/c =  0.7806   67
 Side 2  free  transition at x/c =  0.9636   78

   2   rms: 0.2740E-02   max: 0.2332E-01   D at    3  2
       a =  1.300      CL =  0.1599
      Cm = -0.0374     CD =  0.03742   =>   CDf =  0.00812    CDp =  0.02930

 Side 1  free  transition at x/c =  0.7804   67
 Side 2  free  transition at x/c =  0.9639   78

   3   rms: 0.4064E-04   max: 0.3101E-03   D at   79  2
       a =  1.300      CL =  0.1599
      Cm = -0.0374     CD =  0.03742   =>   CDf =  0.00812    CDp =  0.02930
 plradd ia,ip,cpol           27          80  0.24290843    

 Point added to stored polar  1
 Save file unspecified or not available
 Dump file unspecified or not available

.OPERva   c>  
.OPERva   c>  
.OPERva   c>   Calculating wake trajectory ...
 Calculating source influence matrix ...

 Solving BL system ...

 Side 1  free  transition at x/c =  0.7804   67
 Side 2  free  transition at x/c =  0.9639   78

   1   rms: 0.1720E-01   max: -.9930E-01   D at    4  2   RLX: 0.865
       a =  1.350      CL =  0.1727
      Cm = -0.0388     CD =  0.03744   =>   CDf =  0.00812    CDp =  0.02932

 Side 1  free  transition at x/c =  0.7796   67
 Side 2  free  transition at x/c =  0.9653   78

   2   rms: 0.2672E-02   max: -.1568E-01   D at    4  2
       a =  1.350      CL =  0.1750
      Cm = -0.0391     CD =  0.03745   =>   CDf =  0.00814    CDp =  0.02931

 Side 1  free  transition at x/c =  0.7795   67
 Side 2  free  transition at x/c =  0.9655   78

   3   rms: 0.8284E-04   max: 0.6205E-03   D at   80  2
       a =  1.350      CL =  0.1751
      Cm = -0.0391     CD =  0.03746   =>   CDf =  0.00815    CDp =  0.02931
 plradd ia,ip,cpol           28          80  0.24290843    

 Point added to stored polar  1
 Save file unspecified or not available
 Dump file unspecified or not available

.OPERva   c>  
.OPERva   c>  
.OPERva   c>   Calculating wake trajectory ...
 Calculating source influence matrix ...

 Solving BL system ...

 Side 1  free  transition at x/c =  0.7795   67
 Side 2  free  transition at x/c =  0.9655   78

   1   rms: 0.1622E-01   max: 0.1872E-01   D at   80  2   RLX: 0.879
       a =  1.400      CL =  0.1886
      Cm = -0.0406     CD =  0.03748   =>   CDf =  0.00815    CDp =  0.02933

 Side 1  free  transition at x/c =  0.7788   67
 Side 2  free  transition at x/c =  0.9669   78

   2   rms: 0.2325E-02   max: 0.2926E-02   D at   80  2
       a =  1.400      CL =  0.1908
      Cm = -0.0408     CD =  0.03749   =>   CDf =  0.00816    CDp =  0.02932

 Side 1  free  transition at x/c =  0.7787   67
 Side 2  free  transition at x/c =  0.9671   78

   3   rms: 0.5952E-04   max: 0.5031E-03   D at   81  2
       a =  1.400      CL =  0.1908
      Cm = -0.0408     CD =  0.03749   =>   CDf =  0.00817    CDp =  0.02933
 plradd ia,ip,cpol           29          80  0.24290843    

 Point added to stored polar  1
 Save file unspecified or not available
 Dump file unspecified or not available

.OPERva   c>  
.OPERva   c>  
.OPERva   c>   Calculating wake trajectory ...
 Calculating source influence matrix ...

 Solving BL system ...

 Side 1  free  transition at x/c =  0.7787   67
 Side 2  free  transition at x/c =  0.9671   78

   1   rms: 0.1627E-01   max: 0.1662E-01   D at   80  2   RLX: 0.894
       a =  1.450      CL =  0.2044
      Cm = -0.0423     CD =  0.03751   =>   CDf =  0.00817    CDp =  0.02934

 Side 1  free  transition at x/c =  0.7782   66
 Side 2  free  transition at x/c =  0.9685   78
 idif Ue xi dudx           1  0.17921215      2.72512436E-03   65.762924    
 Uenew xinew           2  4.84876260E-02  7.37309456E-04

   2   rms: 0.3646E+00   max: 0.1957E+01   T at   66  1   RLX: 0.437
       a =  1.450      CL =  0.0498
      Cm = -0.0246     CD =  0.04062   =>   CDf =  0.00820    CDp =  0.03242

 Side 1  free  transition at x/c =  0.7627   65
 Side 2  free  transition at x/c =  0.9865   81

   3   rms: 0.1093E+00   max: -.4224E+00   D at   94  2
       a =  1.450      CL =  0.1280
      Cm = -0.0326     CD =  0.03726   =>   CDf =  0.00794    CDp =  0.02932

 Side 1  free  transition at x/c =  0.7707   66
 Side 2  free  transition at x/c =  0.9819   79

   4   rms: 0.5519E-01   max: 0.4082E+00   C at   79  2
       a =  1.450      CL =  0.1756
      Cm = -0.0389     CD =  0.03760   =>   CDf =  0.00807    CDp =  0.02953

 Side 1  free  transition at x/c =  0.7741   66
 Side 2  free  transition at x/c =  0.9717   79

   5   rms: 0.6251E-02   max: -.5147E-01   D at   92  2
       a =  1.450      CL =  0.1800
      Cm = -0.0394     CD =  0.03786   =>   CDf =  0.00814    CDp =  0.02972

 Side 1  free  transition at x/c =  0.7744   66
 Side 2  free  transition at x/c =  0.9710   79

   6   rms: 0.2327E-03   max: -.2134E-02   D at   92  2
       a =  1.450      CL =  0.1801
      Cm = -0.0395     CD =  0.03788   =>   CDf =  0.00814    CDp =  0.02974

 Side 1  free  transition at x/c =  0.7744   66
 Side 2  free  transition at x/c =  0.9710   79

   7   rms: 0.9793E-05   max: 0.6866E-04   D at   81  2
       a =  1.450      CL =  0.1801
      Cm = -0.0395     CD =  0.03788   =>   CDf =  0.00814    CDp =  0.02974
 plradd ia,ip,cpol           30          80  0.24290843    

 Point added to stored polar  1
 Save file unspecified or not available
 Dump file unspecified or not available

.OPERva   c>  
.OPERva   c>  
.OPERva   c>   Calculating wake trajectory ...
 Calculating source influence matrix ...

 Solving BL system ...

 Side 1  free  transition at x/c =  0.7744   66
 Side 2  free  transition at x/c =  0.9710   79

   1   rms: 0.1040E-01   max: 0.8001E-01   T at   66  1   RLX: 0.855
       a =  1.500      CL =  0.1854
      Cm = -0.0401     CD =  0.03808   =>   CDf =  0.00814    CDp =  0.02994

 Side 1  free  transition at x/c =  0.7721   66
 Side 2  free  transition at x/c =  0.9725   79

   2   rms: 0.2661E-02   max: -.5903E-02   D at   91  2
       a =  1.500      CL =  0.1878
      Cm = -0.0403     CD =  0.03803   =>   CDf =  0.00814    CDp =  0.02989

 Side 1  free  transition at x/c =  0.7720   66
 Side 2  free  transition at x/c =  0.9728   79

   3   rms: 0.1616E-03   max: 0.1260E-02   D at   81  2
       a =  1.500      CL =  0.1879
      Cm = -0.0404     CD =  0.03804   =>   CDf =  0.00815    CDp =  0.02989

 Side 1  free  transition at x/c =  0.7720   66
 Side 2  free  transition at x/c =  0.9727   79

   4   rms: 0.4486E-05   max: 0.3504E-04   C at   79  2
       a =  1.500      CL =  0.1879
      Cm = -0.0404     CD =  0.03804   =>   CDf =  0.00815    CDp =  0.02989
 plradd ia,ip,cpol           31          80  0.24290843    

 Point added to stored polar  1
 Save file unspecified or not available
 Dump file unspecified or not available

.OPERva   c>  
.OPERva   c>  
.OPERva   c>   Calculating wake trajectory ...
 Calculating source influence matrix ...

 Solving BL system ...

 Side 1  free  transition at x/c =  0.7720   66
 Side 2  free  transition at x/c =  0.9727   79

   1   rms: 0.1214E-01   max: -.2223E-01   C at   79  2   RLX: 0.863
       a =  1.550      CL =  0.1965
      Cm = -0.0414     CD =  0.03819   =>   CDf =  0.00815    CDp =  0.03004

 Side 1  free  transition at x/c =  0.7704   66
 Side 2  free  transition at x/c =  0.9743   79

   2   rms: 0.1962E-02   max: -.3519E-02   C at   79  2
       a =  1.550      CL =  0.1983
      Cm = -0.0416     CD =  0.03818   =>   CDf =  0.00815    CDp =  0.03003

 Side 1  free  transition at x/c =  0.7703   66
 Side 2  free  transition at x/c =  0.9746   79

   3   rms: 0.5378E-04   max: 0.4024E-03   D at   81  2
       a =  1.550      CL =  0.1983
      Cm = -0.0416     CD =  0.03818   =>   CDf =  0.00815    CDp =  0.03003
 plradd ia,ip,cpol           32          80  0.24290843    

 Point added to stored polar  1
 Save file unspecified or not available
 Dump file unspecified or not available

.OPERva   c>  
.OPERva   c>  
.OPERva   c>   Calculating wake trajectory ...
 Calculating source influence matrix ...

 Solving BL system ...

 Side 1  free  transition at x/c =  0.7703   66
 Side 2  free  transition at x/c =  0.9746   79

   1   rms: 0.1558E-01   max: -.1392E+00   D at    3  2   RLX: 0.872
       a =  1.600      CL =  0.2083
      Cm = -0.0427     CD =  0.03827   =>   CDf =  0.00816    CDp =  0.03011

 Side 1  free  transition at x/c =  0.7686   66
 Side 2  free  transition at x/c =  0.9761   79

   2   rms: 0.2639E-02   max: -.2296E-01   T at    3  2
       a =  1.600      CL =  0.2104
      Cm = -0.0430     CD =  0.03826   =>   CDf =  0.00818    CDp =  0.03008

 Side 1  free  transition at x/c =  0.7685   67
 Side 2  free  transition at x/c =  0.9763   78

   3   rms: 0.1297E-01   max: -.2326E+00   D at    2  1
       a =  1.600      CL =  0.2105
      Cm = -0.0430     CD =  0.03826   =>   CDf =  0.00817    CDp =  0.03009

 Side 1  free  transition at x/c =  0.7685   67
 Side 2  free  transition at x/c =  0.9763   78

   4   rms: 0.5216E-03   max: 0.6828E-02   D at    3  1
       a =  1.600      CL =  0.2105
      Cm = -0.0430     CD =  0.03826   =>   CDf =  0.00817    CDp =  0.03009

 Side 1  free  transition at x/c =  0.7685   67
 Side 2  free  transition at x/c =  0.9763   78

   5   rms: 0.1937E-04   max: -.2452E-03   D at    4  1
       a =  1.600      CL =  0.2105
      Cm = -0.0430     CD =  0.03826   =>   CDf =  0.00817    CDp =  0.03009
 plradd ia,ip,cpol           33          81  0.24290843    

 Point added to stored polar  1
 Save file unspecified or not available
 Dump file unspecified or not available

.OPERva   c>  
.OPERva   c>  
.OPERva   c>   Calculating wake trajectory ...
 Calculating source influence matrix ...

 Solving BL system ...

 Side 1  free  transition at x/c =  0.7685   67
 Side 2  free  transition at x/c =  0.9763   78

   1   rms: 0.1544E-01   max: -.1089E+00   T at    3  1   RLX: 0.883
       a =  1.650      CL =  0.2217
      Cm = -0.0442     CD =  0.03832   =>   CDf =  0.00817    CDp =  0.03015

 Side 1  free  transition at x/c =  0.7671   67
 Side 2  free  transition at x/c =  0.9779   78

   2   rms: 0.2120E-02   max: -.2219E-02   D at   89  2
       a =  1.650      CL =  0.2237
      Cm = -0.0444     CD =  0.03832   =>   CDf =  0.00818    CDp =  0.03014

 Side 1  free  transition at x/c =  0.7670   67
 Side 2  free  transition at x/c =  0.9780   78

   3   rms: 0.7734E-04   max: 0.5603E-03   C at   78  2
       a =  1.650      CL =  0.2237
      Cm = -0.0445     CD =  0.03832   =>   CDf =  0.00818    CDp =  0.03014
 plradd ia,ip,cpol           34          81  0.24290843    

 Point added to stored polar  1
 Save file unspecified or not available
 Dump file unspecified or not available

.OPERva   c>  
.OPERva   c>  
.OPERva   c>   Calculating wake trajectory ...
 Calculating source influence matrix ...

 Solving BL system ...

 Side 1  free  transition at x/c =  0.7670   67
 Side 2  free  transition at x/c =  0.9780   78

   1   rms: 0.1446E-01   max: 0.1467E-01   D at   79  2   RLX: 0.895
       a =  1.700      CL =  0.2357
      Cm = -0.0458     CD =  0.03837   =>   CDf =  0.00819    CDp =  0.03019

 Side 1  free  transition at x/c =  0.7658   67
 Side 2  free  transition at x/c =  0.9796   78

   2   rms: 0.1867E-02   max: -.2392E-02   D at   88  2
       a =  1.700      CL =  0.2375
      Cm = -0.0460     CD =  0.03837   =>   CDf =  0.00820    CDp =  0.03017

 Side 1  free  transition at x/c =  0.7658   67
 Side 2  free  transition at x/c =  0.9798   78

   3   rms: 0.7059E-04   max: 0.5230E-03   C at   78  2
       a =  1.700      CL =  0.2376
      Cm = -0.0460     CD =  0.03837   =>   CDf =  0.00820    CDp =  0.03017
 plradd ia,ip,cpol           35          81  0.24290843    

 Point added to stored polar  1
 Save file unspecified or not available
 Dump file unspecified or not available

.OPERva   c>  
.OPERva   c>  
.OPERva   c>   Calculating wake trajectory ...
 Calculating source influence matrix ...

 Solving BL system ...

 Side 1  free  transition at x/c =  0.7658   67
 Side 2  free  transition at x/c =  0.9797   78

   1   rms: 0.1729E-01   max: -.1223E+00   D at    3  1   RLX: 0.909
       a =  1.750      CL =  0.2502
      Cm = -0.0474     CD =  0.03839   =>   CDf =  0.00820    CDp =  0.03019

 Side 1  free  transition at x/c =  0.7647   67
 Side 2  free  transition at x/c =  0.9812   78

   2   rms: 0.1838E-02   max: -.1136E-01   D at    3  2
       a =  1.750      CL =  0.2518
      Cm = -0.0476     CD =  0.03839   =>   CDf =  0.00821    CDp =  0.03018

 Side 1  free  transition at x/c =  0.7647   67
 Side 2  free  transition at x/c =  0.9813   78

   3   rms: 0.6055E-04   max: 0.4425E-03   C at   78  2
       a =  1.750      CL =  0.2519
      Cm = -0.0476     CD =  0.03840   =>   CDf =  0.00821    CDp =  0.03018
 plradd ia,ip,cpol           36          81  0.24290843    

 Point added to stored polar  1
 Save file unspecified or not available
 Dump file unspecified or not available

.OPERva   c>  
.OPERva   c>  
.OPERva   c>   Calculating wake trajectory ...
 Calculating source influence matrix ...

 Solving BL system ...

 Side 1  free  transition at x/c =  0.7647   67
 Side 2  free  transition at x/c =  0.9813   78

   1   rms: 0.1666E-01   max: 0.9968E-01   D at    3  2   RLX: 0.924
       a =  1.800      CL =  0.2656
      Cm = -0.0491     CD =  0.03838   =>   CDf =  0.00822    CDp =  0.03016

 Side 1  free  transition at x/c =  0.7637   67
 Side 2  free  transition at x/c =  0.9824   78

   2   rms: 0.8276E-02   max: -.1065E+00   C at   78  2
       a =  1.800      CL =  0.2660
      Cm = -0.0490     CD =  0.03837   =>   CDf =  0.00823    CDp =  0.03014

 Side 1  free  transition at x/c =  0.7637   67
 Side 2  free  transition at x/c =  0.9829   79

   3   rms: 0.6655E-02   max: -.9624E-01   D at   78  2
       a =  1.800      CL =  0.2671
      Cm = -0.0492     CD =  0.03837   =>   CDf =  0.00823    CDp =  0.03014

 Side 1  free  transition at x/c =  0.7637   67
 Side 2  free  transition at x/c =  0.9830   79

   4   rms: 0.5674E-03   max: 0.6791E-02   C at   79  2
       a =  1.800      CL =  0.2674
      Cm = -0.0493     CD =  0.03838   =>   CDf =  0.00823    CDp =  0.03015

 Side 1  free  transition at x/c =  0.7637   67
 Side 2  free  transition at x/c =  0.9828   79

   5   rms: 0.5718E-05   max: 0.4142E-04   C at   79  2
       a =  1.800      CL =  0.2674
      Cm = -0.0493     CD =  0.03838   =>   CDf =  0.00823    CDp =  0.03015
 plradd ia,ip,cpol           37          81  0.24290843    

 Point added to stored polar  1
 Save file unspecified or not available
 Dump file unspecified or not available

.OPERva   c>  
.OPERva   c>  
.OPERva   c>   Calculating wake trajectory ...
 Calculating source influence matrix ...

 Solving BL system ...

 Side 1  free  transition at x/c =  0.7637   67
 Side 2  free  transition at x/c =  0.9828   79

   1   rms: 0.1609E-01   max: 0.1863E-01   D at   79  2   RLX: 0.943
       a =  1.850      CL =  0.2829
      Cm = -0.0510     CD =  0.03837   =>   CDf =  0.00823    CDp =  0.03013

 Side 1  free  transition at x/c =  0.7628   67
 Side 2  free  transition at x/c =  0.9838   79

   2   rms: 0.1377E-02   max: -.2732E-02   D at   89  2
       a =  1.850      CL =  0.2842
      Cm = -0.0511     CD =  0.03837   =>   CDf =  0.00824    CDp =  0.03013

 Side 1  free  transition at x/c =  0.7628   67
 Side 2  free  transition at x/c =  0.9838   79

   3   rms: 0.8865E-04   max: 0.6712E-03   C at   79  2
       a =  1.850      CL =  0.2843
      Cm = -0.0512     CD =  0.03838   =>   CDf =  0.00825    CDp =  0.03013
 plradd ia,ip,cpol           38          81  0.24290843    

 Point added to stored polar  1
 Save file unspecified or not available
 Dump file unspecified or not available

.OPERva   c>  
.OPERva   c>  
.OPERva   c>   Calculating wake trajectory ...
 Calculating source influence matrix ...

 Solving BL system ...

 Side 1  free  transition at x/c =  0.7628   67
 Side 2  free  transition at x/c =  0.9838   79

   1   rms: 0.1590E-01   max: 0.1683E-01   D at   79  2   RLX: 0.963
       a =  1.900      CL =  0.3001
      Cm = -0.0529     CD =  0.03833   =>   CDf =  0.00825    CDp =  0.03008

 Side 1  free  transition at x/c =  0.7620   67
 Side 2  free  transition at x/c =  0.9849   79

   2   rms: 0.1070E-02   max: 0.3130E-02   C at   79  2
       a =  1.900      CL =  0.3012
      Cm = -0.0530     CD =  0.03835   =>   CDf =  0.00826    CDp =  0.03009

 Side 1  free  transition at x/c =  0.7620   67
 Side 2  free  transition at x/c =  0.9848   79

   3   rms: 0.6068E-04   max: 0.4338E-03   D at   80  2
       a =  1.900      CL =  0.3013
      Cm = -0.0531     CD =  0.03835   =>   CDf =  0.00826    CDp =  0.03009
 plradd ia,ip,cpol           39          81  0.24290843    

 Point added to stored polar  1
 Save file unspecified or not available
 Dump file unspecified or not available

.OPERva   c>  
.OPERva   c>  
.OPERva   c>   Calculating wake trajectory ...
 Calculating source influence matrix ...

 Solving BL system ...

 Side 1  free  transition at x/c =  0.7620   67
 Side 2  free  transition at x/c =  0.9848   79

   1   rms: 0.1866E-01   max: -.1151E+00   D at    3  1   RLX: 0.983
       a =  1.950      CL =  0.3171
      Cm = -0.0548     CD =  0.03832   =>   CDf =  0.00826    CDp =  0.03006

 Side 1  free  transition at x/c =  0.7615   66
 Side 2  free  transition at x/c =  0.9860   79

   2   rms: 0.5378E-01   max: -.3022E+00   T at   66  1
       a =  1.950      CL =  0.3681
      Cm = -0.0601     CD =  0.03675   =>   CDf =  0.00826    CDp =  0.02849

 Side 1  free  transition at x/c =  0.7722   68
 Side 2  free  transition at x/c =  0.9812   77
 idif Ue xi dudx           1  0.19287634      2.46560574E-03   78.226753    
 Uenew xinew           2  4.78297509E-02  6.11424446E-04

   3   rms: 0.1367E+00   max: 0.5372E+00   D at   75  1
       a =  1.950      CL =  0.2842
      Cm = -0.0511     CD =  0.04068   =>   CDf =  0.00842    CDp =  0.03225

 Side 1  free  transition at x/c =  0.7584   66
 Side 2  free  transition at x/c =  0.9931   79

   4   rms: 0.1440E-01   max: 0.9427E-01   T at   66  1
       a =  1.950      CL =  0.2837
      Cm = -0.0513     CD =  0.03913   =>   CDf =  0.00824    CDp =  0.03089

 Side 1  free  transition at x/c =  0.7561   66
 Side 2  free  transition at x/c =  0.9902   79

   5   rms: 0.6074E-02   max: -.2360E-01   D at    4  2
       a =  1.950      CL =  0.2884
      Cm = -0.0517     CD =  0.03895   =>   CDf =  0.00823    CDp =  0.03072

 Side 1  free  transition at x/c =  0.7569   66
 Side 2  free  transition at x/c =  0.9894   79

   6   rms: 0.9975E-03   max: 0.5481E-02   C at   79  2
       a =  1.950      CL =  0.2894
      Cm = -0.0519     CD =  0.03896   =>   CDf =  0.00823    CDp =  0.03073

 Side 1  free  transition at x/c =  0.7570   66
 Side 2  free  transition at x/c =  0.9892   79

   7   rms: 0.6845E-04   max: 0.5008E-03   C at   79  2
       a =  1.950      CL =  0.2895
      Cm = -0.0519     CD =  0.03897   =>   CDf =  0.00823    CDp =  0.03073
 plradd ia,ip,cpol           40          81  0.21225892    

 Point added to stored polar  1
 Save file unspecified or not available
 Dump file unspecified or not available

.OPERva   c>  
.OPERva   c>  
.OPERva   c>   Calculating wake trajectory ...
 Calculating source influence matrix ...

 Solving BL system ...

 Side 1  free  transition at x/c =  0.7570   66
 Side 2  free  transition at x/c =  0.9892   79

   1   rms: 0.1363E-01   max: 0.1055E+00   D at    3  1   RLX: 0.930
       a =  2.000      CL =  0.2943
      Cm = -0.0525     CD =  0.03920   =>   CDf =  0.00824    CDp =  0.03097

 Side 1  free  transition at x/c =  0.7545   66
 Side 2  free  transition at x/c =  0.9919   79

   2   rms: 0.2670E-02   max: -.7843E-02   D at   90  2
       a =  2.000      CL =  0.2962
      Cm = -0.0526     CD =  0.03912   =>   CDf =  0.00823    CDp =  0.03089

 Side 1  free  transition at x/c =  0.7546   66
 Side 2  free  transition at x/c =  0.9920   79

   3   rms: 0.1873E-03   max: 0.1797E-02   C at   79  2
       a =  2.000      CL =  0.2964
      Cm = -0.0527     CD =  0.03913   =>   CDf =  0.00823    CDp =  0.03090

 Side 1  free  transition at x/c =  0.7546   66
 Side 2  free  transition at x/c =  0.9920   79

   4   rms: 0.4319E-05   max: 0.3339E-04   C at   79  2
       a =  2.000      CL =  0.2964
      Cm = -0.0527     CD =  0.03913   =>   CDf =  0.00823    CDp =  0.03090
 plradd ia,ip,cpol           41          81  0.21225892    

 Point added to stored polar  1
 Save file unspecified or not available
 Dump file unspecified or not available

.OPERva   c>  
.OPERva   c>  
.OPERva   c>   Calculating wake trajectory ...
 Calculating source influence matrix ...

 Solving BL system ...

 Side 1  free  transition at x/c =  0.7546   66
 Side 2  free  transition at x/c =  0.9920   79

   1   rms: 0.1219E-01   max: -.5913E-01   D at    5  2   RLX: 0.937
       a =  2.050      CL =  0.3042
      Cm = -0.0535     CD =  0.03926   =>   CDf =  0.00824    CDp =  0.03103

 Side 1  free  transition at x/c =  0.7527   66
 Side 2  free  transition at x/c =  0.9939   80

   2   rms: 0.6417E-02   max: -.1156E+00   C at   80  2
       a =  2.050      CL =  0.3056
      Cm = -0.0536     CD =  0.03921   =>   CDf =  0.00824    CDp =  0.03098

 Side 1  free  transition at x/c =  0.7528   66
 Side 2  free  transition at x/c =  0.9946   80

   3   rms: 0.1642E-03   max: 0.1046E-02   C at   80  2
       a =  2.050      CL =  0.3057
      Cm = -0.0537     CD =  0.03923   =>   CDf =  0.00824    CDp =  0.03099

 Side 1  free  transition at x/c =  0.7528   66
 Side 2  free  transition at x/c =  0.9946   80

   4   rms: 0.6616E-05   max: 0.3348E-04   C at   80  2
       a =  2.050      CL =  0.3058
      Cm = -0.0537     CD =  0.03923   =>   CDf =  0.00824    CDp =  0.03099
 plradd ia,ip,cpol           42          81  0.21225892    

 Point added to stored polar  1
 Save file unspecified or not available
 Dump file unspecified or not available

.OPERva   c>  
.OPERva   c>  
.OPERva   c>   Calculating wake trajectory ...
 Calculating source influence matrix ...

 Solving BL system ...

 Side 1  free  transition at x/c =  0.7528   66
 Side 2  free  transition at x/c =  0.9946   80

   1   rms: 0.1502E-01   max: -.1228E+00   D at    3  1   RLX: 0.946
       a =  2.100      CL =  0.3156
      Cm = -0.0548     CD =  0.03932   =>   CDf =  0.00822    CDp =  0.03110

 Side 1  free  transition at x/c =  0.7512   67
 Side 2  free  transition at x/c =  0.9973   79

   2   rms: 0.6541E-02   max: -.1063E+00   D at    2  1
       a =  2.100      CL =  0.3168
      Cm = -0.0549     CD =  0.03929   =>   CDf =  0.00825    CDp =  0.03105

 Side 1  free  transition at x/c =  0.7513   67
 Side 2  free  transition at x/c =  0.9974   79

   3   rms: 0.1538E-03   max: 0.1757E-02   D at    4  1
       a =  2.100      CL =  0.3168
      Cm = -0.0549     CD =  0.03930   =>   CDf =  0.00825    CDp =  0.03105

 Side 1  free  transition at x/c =  0.7513   67
 Side 2  free  transition at x/c =  0.9974   79

   4   rms: 0.8643E-05   max: -.1089E-03   D at    4  1
       a =  2.100      CL =  0.3168
      Cm = -0.0549     CD =  0.03930   =>   CDf =  0.00825    CDp =  0.03105
 plradd ia,ip,cpol           43          82  0.21225892    

 Point added to stored polar  1
 Save file unspecified or not available
 Dump file unspecified or not available

.OPERva   c>  
.OPERva   c>  
.OPERva   c>   Calculating wake trajectory ...
 Calculating source influence matrix ...

 Solving BL system ...

 Side 1  free  transition at x/c =  0.7513   67
 Side 2  free  transition at x/c =  0.9974   79

   1   rms: 0.1438E-01   max: 0.8253E-01   T at    4  1   RLX: 0.959
       a =  2.150      CL =  0.3288
      Cm = -0.0561     CD =  0.03931   =>   CDf =  0.00825    CDp =  0.03106

 Side 1  free  transition at x/c =  0.7498   67
 Side 2  free  transition at x/c =  0.9998   79

   2   rms: 0.1452E-02   max: -.3142E-02   D at   86  2
       a =  2.150      CL =  0.3302
      Cm = -0.0563     CD =  0.03929   =>   CDf =  0.00826    CDp =  0.03104

 Side 1  free  transition at x/c =  0.7498   67
 Side 2  free  transition at x/c =  0.9998   79

   3   rms: 0.7405E-04   max: 0.3840E-03   D at   79  2
       a =  2.150      CL =  0.3303
      Cm = -0.0563     CD =  0.03930   =>   CDf =  0.00826    CDp =  0.03104
 plradd ia,ip,cpol           44          82  0.19712920    

 Point added to stored polar  1
 Save file unspecified or not available
 Dump file unspecified or not available

.OPERva   c>  
.OPERva   c>  
.OPERva   c>   Calculating wake trajectory ...
 Calculating source influence matrix ...

 Solving BL system ...

 Side 1  free  transition at x/c =  0.7498   67
 Side 2  free  transition at x/c =  0.9998   79

   1   rms: 0.1513E-01   max: -.9120E-01   D at    4  2   RLX: 0.973
       a =  2.200      CL =  0.3428
      Cm = -0.0576     CD =  0.03931   =>   CDf =  0.00826    CDp =  0.03105

 Side 1  free  transition at x/c =  0.7487   67
 Side 2 forced transition at x/c =  1.0000   79

   2   rms: 0.5483E-02   max: -.4804E-01   C at   79  2
       a =  2.200      CL =  0.3368
      Cm = -0.0566     CD =  0.03928   =>   CDf =  0.00827    CDp =  0.03101

 Side 1  free  transition at x/c =  0.7486   67
 Side 2 forced transition at x/c =  1.0000   79

   3   rms: 0.7594E-04   max: 0.5087E-03   D at   86  2
       a =  2.200      CL =  0.3367
      Cm = -0.0566     CD =  0.03927   =>   CDf =  0.00827    CDp =  0.03100
 plradd ia,ip,cpol           45          82  0.21225892    

 Point added to stored polar  1
 Save file unspecified or not available
 Dump file unspecified or not available

.OPERva   c>  
.OPERva   c>  
.OPERva   c>   Calculating wake trajectory ...
 Calculating source influence matrix ...

 Solving BL system ...

 Side 1  free  transition at x/c =  0.7486   67
 Side 2 forced transition at x/c =  1.0000   79

   1   rms: 0.1096E-01   max: -.3219E-01   C at   79  2   RLX: 0.963
       a =  2.250      CL =  0.3434
      Cm = -0.0568     CD =  0.03921   =>   CDf =  0.00827    CDp =  0.03095

 Side 1  free  transition at x/c =  0.7475   67
 Side 2 forced transition at x/c =  1.0000   79

   2   rms: 0.1139E-02   max: -.2319E-02   D at   90  2
       a =  2.250      CL =  0.3444
      Cm = -0.0570     CD =  0.03920   =>   CDf =  0.00828    CDp =  0.03092

 Side 1  free  transition at x/c =  0.7475   67
 Side 2 forced transition at x/c =  1.0000   79

   3   rms: 0.3467E-04   max: 0.1258E-03   C at   79  2
       a =  2.250      CL =  0.3445
      Cm = -0.0570     CD =  0.03920   =>   CDf =  0.00828    CDp =  0.03092
 plradd ia,ip,cpol           46          82  0.21225892    

 Point added to stored polar  1
 Save file unspecified or not available
 Dump file unspecified or not available

.OPERva   c>  
.OPERva   c>  
.OPERva   c>   Calculating wake trajectory ...
 Calculating source influence matrix ...

 Solving BL system ...

 Side 1  free  transition at x/c =  0.7475   67
 Side 2 forced transition at x/c =  1.0000   79

   1   rms: 0.1551E-01   max: -.1569E+00   D at    4  1   RLX: 0.969
       a =  2.300      CL =  0.3525
      Cm = -0.0574     CD =  0.03913   =>   CDf =  0.00828    CDp =  0.03085

 Side 1  free  transition at x/c =  0.7465   67
 Side 2 forced transition at x/c =  1.0000   79

   2   rms: 0.1081E-02   max: -.5060E-02   D at    3  2
       a =  2.300      CL =  0.3534
      Cm = -0.0575     CD =  0.03912   =>   CDf =  0.00829    CDp =  0.03083

 Side 1  free  transition at x/c =  0.7465   67
 Side 2 forced transition at x/c =  1.0000   79

   3   rms: 0.2868E-04   max: -.1056E-03   D at   86  2
       a =  2.300      CL =  0.3534
      Cm = -0.0575     CD =  0.03912   =>   CDf =  0.00829    CDp =  0.03083
 plradd ia,ip,cpol           47          82  0.19712920    

 Point added to stored polar  1
 Save file unspecified or not available
 Dump file unspecified or not available

.OPERva   c>  
.OPERva   c>  
.OPERva   c>   Calculating wake trajectory ...
 Calculating source influence matrix ...

 Solving BL system ...

 Side 1  free  transition at x/c =  0.7465   67
 Side 2 forced transition at x/c =  1.0000   79

   1   rms: 0.1359E-01   max: 0.8989E-01   D at    3  2   RLX: 0.976
       a =  2.350      CL =  0.3624
      Cm = -0.0581     CD =  0.03904   =>   CDf =  0.00829    CDp =  0.03075

 Side 1  free  transition at x/c =  0.7457   67
 Side 2 forced transition at x/c =  1.0000   79

   2   rms: 0.8882E-03   max: 0.2025E-02   C at   79  2
       a =  2.350      CL =  0.3632
      Cm = -0.0582     CD =  0.03903   =>   CDf =  0.00830    CDp =  0.03073

 Side 1  free  transition at x/c =  0.7457   67
 Side 2 forced transition at x/c =  1.0000   79

   3   rms: 0.2337E-04   max: 0.7785E-04   C at   79  2
       a =  2.350      CL =  0.3633
      Cm = -0.0582     CD =  0.03904   =>   CDf =  0.00830    CDp =  0.03074
 plradd ia,ip,cpol           48          82  0.21225892    

 Point added to stored polar  1
 Save file unspecified or not available
 Dump file unspecified or not available

.OPERva   c>  
.OPERva   c>  
.OPERva   c>   Calculating wake trajectory ...
 Calculating source influence matrix ...

 Solving BL system ...

 Side 1  free  transition at x/c =  0.7457   67
 Side 2 forced transition at x/c =  1.0000   79

   1   rms: 0.1671E-01   max: -.1469E+00   D at    3  1   RLX: 0.984
       a =  2.400      CL =  0.3730
      Cm = -0.0588     CD =  0.03895   =>   CDf =  0.00830    CDp =  0.03065

 Side 1  free  transition at x/c =  0.7450   66
 Side 2 forced transition at x/c =  1.0000   79

   2   rms: 0.2181E-01   max: 0.1087E+00   C at   79  2
       a =  2.400      CL =  0.3971
      Cm = -0.0619     CD =  0.03851   =>   CDf =  0.00831    CDp =  0.03020

 Side 1  free  transition at x/c =  0.7475   67
 Side 2 forced transition at x/c =  1.0000   79

   3   rms: 0.3640E-01   max: 0.1234E+00   D at   73  1
       a =  2.400      CL =  0.3690
      Cm = -0.0583     CD =  0.03925   =>   CDf =  0.00832    CDp =  0.03093

 Side 1  free  transition at x/c =  0.7448   66
 Side 2 forced transition at x/c =  1.0000   79

   4   rms: 0.2895E-01   max: 0.1555E+00   C at   79  2
       a =  2.400      CL =  0.4008
      Cm = -0.0624     CD =  0.03843   =>   CDf =  0.00831    CDp =  0.03012

 Side 1  free  transition at x/c =  0.7480   67
 Side 2 forced transition at x/c =  1.0000   79

   5   rms: 0.4304E-01   max: 0.1460E+00   D at   73  1
       a =  2.400      CL =  0.3671
      Cm = -0.0580     CD =  0.03934   =>   CDf =  0.00833    CDp =  0.03101

 Side 1  free  transition at x/c =  0.7447   66
 Side 2 forced transition at x/c =  1.0000   79

   6   rms: 0.3227E-01   max: 0.1757E+00   C at   79  2
       a =  2.400      CL =  0.4026
      Cm = -0.0626     CD =  0.03839   =>   CDf =  0.00831    CDp =  0.03008

 Side 1  free  transition at x/c =  0.7482   67
 Side 2 forced transition at x/c =  1.0000   79

   7   rms: 0.4634E-01   max: -.1455E+00   C at   79  2
       a =  2.400      CL =  0.3660
      Cm = -0.0579     CD =  0.03939   =>   CDf =  0.00833    CDp =  0.03106

 Side 1  free  transition at x/c =  0.7446   66
 Side 2 forced transition at x/c =  1.0000   79

   8   rms: 0.3424E-01   max: 0.1885E+00   C at   79  2
       a =  2.400      CL =  0.4036
      Cm = -0.0627     CD =  0.03837   =>   CDf =  0.00831    CDp =  0.03006

 Side 1  free  transition at x/c =  0.7484   67
 Side 2 forced transition at x/c =  1.0000   79

   9   rms: 0.4829E-01   max: -.1511E+00   C at   79  2
       a =  2.400      CL =  0.3654
      Cm = -0.0578     CD =  0.03941   =>   CDf =  0.00833    CDp =  0.03108

 Side 1  free  transition at x/c =  0.7446   66
 Side 2 forced transition at x/c =  1.0000   79

  10   rms: 0.3541E-01   max: 0.1959E+00   C at   79  2
       a =  2.400      CL =  0.4042
      Cm = -0.0628     CD =  0.03835   =>   CDf =  0.00831    CDp =  0.03004
 VISCAL:  Convergence failed

.OPERva   c>  
.OPERva   c>  
.OPERva   c>   Calculating wake trajectory ...
 Calculating source influence matrix ...

 Solving BL system ...

 Side 1  free  transition at x/c =  0.7485   67
 Side 2 forced transition at x/c =  1.0000   79

   1   rms: 0.4423E-01   max: 0.1714E+00   T at   67  1   RLX: 0.976
       a =  2.450      CL =  0.3756
      Cm = -0.0585     CD =  0.03921   =>   CDf =  0.00833    CDp =  0.03088

 Side 1  free  transition at x/c =  0.7438   66
 Side 2 forced transition at x/c =  1.0000   79

   2   rms: 0.1094E+00   max: 0.6051E+00   C at   79  2
       a =  2.450      CL =  0.4953
      Cm = -0.0738     CD =  0.03676   =>   CDf =  0.00828    CDp =  0.02848

 Side 1  free  transition at x/c =  0.7591   68
 Side 2  free  transition at x/c =  0.9954   78
 idif Ue xi dudx           1  0.21594808      2.67052650E-03   80.863480    
 Uenew xinew           2  6.53088167E-02  8.07642937E-04

   3   rms: 0.1915E+00   max: 0.7390E+00   D at   75  1
       a =  2.450      CL =  0.3642
      Cm = -0.0587     CD =  0.04278   =>   CDf =  0.00849    CDp =  0.03429

 Side 1  free  transition at x/c =  0.7403   66
 Side 2 forced transition at x/c =  1.0000   79
 idif Ue xi dudx           1  0.18024340      2.30681896E-03   78.135048    
 Uenew xinew           2  3.53668667E-02  4.52637672E-04

   4   rms: 0.1527E+00   max: -.7670E+00   C at   79  2   RLX: 0.652
       a =  2.450      CL =  0.2531
      Cm = -0.0429     CD =  0.04259   =>   CDf =  0.00834    CDp =  0.03425

 Side 1  free  transition at x/c =  0.7327   65
 Side 2 forced transition at x/c =  1.0000   80

   5   rms: 0.5266E-01   max: 0.1719E+00   C at   80  2
       a =  2.450      CL =  0.3033
      Cm = -0.0494     CD =  0.03940   =>   CDf =  0.00823    CDp =  0.03118

 Side 1  free  transition at x/c =  0.7367   66
 Side 2 forced transition at x/c =  1.0000   79

   6   rms: 0.1267E-01   max: 0.1220E+00   C at   79  2
       a =  2.450      CL =  0.3151
      Cm = -0.0509     CD =  0.03965   =>   CDf =  0.00828    CDp =  0.03137

 Side 1  free  transition at x/c =  0.7374   66
 Side 2 forced transition at x/c =  1.0000   79

   7   rms: 0.1594E-02   max: 0.1783E-01   C at   79  2
       a =  2.450      CL =  0.3166
      Cm = -0.0512     CD =  0.03970   =>   CDf =  0.00828    CDp =  0.03142

 Side 1  free  transition at x/c =  0.7375   66
 Side 2 forced transition at x/c =  1.0000   79

   8   rms: 0.4671E-04   max: 0.3767E-03   C at   79  2
       a =  2.450      CL =  0.3167
      Cm = -0.0512     CD =  0.03971   =>   CDf =  0.00828    CDp =  0.03143
 plradd ia,ip,cpol           49          82  0.19712920    

 Point added to stored polar  1
 Save file unspecified or not available
 Dump file unspecified or not available

.OPERva   c>  
.OPERva   c>  
.OPERva   c>   Calculating wake trajectory ...
 Calculating source influence matrix ...

 Solving BL system ...

 Side 1  free  transition at x/c =  0.7375   66
 Side 2 forced transition at x/c =  1.0000   79

   1   rms: 0.1012E-01   max: -.1108E+00   C at   79  2   RLX: 0.866
       a =  2.500      CL =  0.3159
      Cm = -0.0506     CD =  0.03980   =>   CDf =  0.00828    CDp =  0.03152

 Side 1  free  transition at x/c =  0.7357   66
 Side 2 forced transition at x/c =  1.0000   79

   2   rms: 0.2064E-02   max: 0.2710E-02   C at   79  2
       a =  2.500      CL =  0.3177
      Cm = -0.0508     CD =  0.03975   =>   CDf =  0.00829    CDp =  0.03147

 Side 1  free  transition at x/c =  0.7356   66
 Side 2 forced transition at x/c =  1.0000   79

   3   rms: 0.4449E-04   max: 0.3152E-03   C at   79  2
       a =  2.500      CL =  0.3178
      Cm = -0.0508     CD =  0.03976   =>   CDf =  0.00829    CDp =  0.03147
 plradd ia,ip,cpol           50          82  0.19712920    

 Point added to stored polar  1
 Save file unspecified or not available
 Dump file unspecified or not available

.OPERva   c>  
.OPERva   c>  
.OPERva   c>   Calculating wake trajectory ...
 Calculating source influence matrix ...

 Solving BL system ...

 Side 1  free  transition at x/c =  0.7356   66
 Side 2 forced transition at x/c =  1.0000   79

   1   rms: 0.2121E-01   max: 0.2640E+00   D at    3  1   RLX: 0.864
       a =  2.550      CL =  0.3206
      Cm = -0.0507     CD =  0.03980   =>   CDf =  0.00829    CDp =  0.03151

 Side 1  free  transition at x/c =  0.7341   66
 Side 2 forced transition at x/c =  1.0000   79

   2   rms: 0.2464E-02   max: 0.2424E-01   D at    3  1
       a =  2.550      CL =  0.3222
      Cm = -0.0508     CD =  0.03978   =>   CDf =  0.00830    CDp =  0.03148

 Side 1  free  transition at x/c =  0.7340   66
 Side 2 forced transition at x/c =  1.0000   79

   3   rms: 0.2315E-04   max: -.1829E-03   D at    3  1
       a =  2.550      CL =  0.3222
      Cm = -0.0508     CD =  0.03978   =>   CDf =  0.00830    CDp =  0.03148
 plradd ia,ip,cpol           51          82  0.19712920    

 Point added to stored polar  1
 Save file unspecified or not available
 Dump file unspecified or not available

.OPERva   c>  
.OPERva   c>  
.OPERva   c>   Calculating wake trajectory ...
 Calculating source influence matrix ...

 Solving BL system ...

 Side 1  free  transition at x/c =  0.7340   66
 Side 2 forced transition at x/c =  1.0000   79

   1   rms: 0.1438E-01   max: -.1431E+00   D at    3  1   RLX: 0.865
       a =  2.600      CL =  0.3271
      Cm = -0.0510     CD =  0.03980   =>   CDf =  0.00830    CDp =  0.03150

 Side 1  free  transition at x/c =  0.7328   66
 Side 2 forced transition at x/c =  1.0000   79

   2   rms: 0.2424E-02   max: -.1877E-01   D at    3  1
       a =  2.600      CL =  0.3288
      Cm = -0.0512     CD =  0.03978   =>   CDf =  0.00831    CDp =  0.03147

 Side 1  free  transition at x/c =  0.7327   66
 Side 2 forced transition at x/c =  1.0000   79

   3   rms: 0.3672E-04   max: 0.1787E-03   C at   79  2
       a =  2.600      CL =  0.3288
      Cm = -0.0512     CD =  0.03978   =>   CDf =  0.00831    CDp =  0.03147
 plradd ia,ip,cpol           52          82  0.19712920    

 Point added to stored polar  1
 Save file unspecified or not available
 Dump file unspecified or not available

.OPERva   c>  
.OPERva   c>  
[...]

   4   rms: 0.1449E+00   max: -.6682E+00   T at   64  1   RLX: 0.748
       a =  4.300      CL =  0.6272
      Cm = -0.0696     CD =  0.03845   =>   CDf =  0.00828    CDp =  0.03017

 Side 1  free  transition at x/c =  0.6968   67
 Side 2 forced transition at x/c =  1.0000   76

   5   rms: 0.8219E-01   max: 0.4607E+00   D at   67  1
       a =  4.300      CL =  0.6151
      Cm = -0.0695     CD =  0.04099   =>   CDf =  0.00846    CDp =  0.03253

 Side 1  free  transition at x/c =  0.6900   66
 Side 2 forced transition at x/c =  1.0000   76

   6   rms: 0.3486E+00   max: 0.2025E+01   C at   76  2   RLX: 0.351
       a =  4.300      CL =  0.7268
      Cm = -0.0807     CD =  0.03100   =>   CDf =  0.00823    CDp =  0.02278

 Side 1  free  transition at x/c =  0.7139   69
 Side 2 forced transition at x/c =  1.0000   75
 idif Ue xi dudx           1  0.13906966      2.22599506E-03   62.475277    
 Uenew xinew           2  2.21939478E-03  3.55243683E-05

   7   rms: 0.1511E+00   max: 0.6386E+00   D at   69  1
       a =  4.300      CL =  0.6929
      Cm = -0.0775     CD =  0.03690   =>   CDf =  0.00865    CDp =  0.02825

 Side 1  free  transition at x/c =  0.7023   67
 Side 2 forced transition at x/c =  1.0000   76

   8   rms: 0.1904E+01   max: -.2726E+02   T at    2  2   RLX: 0.018
       a =  4.300      CL =  0.6889
      Cm = -0.0832     CD =  0.03167   =>   CDf =  0.00839    CDp =  0.02328

 Side 1  free  transition at x/c =  0.6993   67
 Side 2 forced transition at x/c =  1.0000   76

   9   rms: 0.2756E+00   max: -.1510E+01   C at   76  2   RLX: 0.331
       a =  4.300      CL =  0.6199
      Cm = -0.0743     CD =  0.03708   =>   CDf =  0.00839    CDp =  0.02870

 Side 1  free  transition at x/c =  0.6898   66
 Side 2 forced transition at x/c =  1.0000   76

  10   rms: 0.4467E+00   max: 0.2401E+01   C at   76  2   RLX: 0.267
       a =  4.300      CL =  0.7193
      Cm = -0.0808     CD =  0.03096   =>   CDf =  0.00824    CDp =  0.02272
 VISCAL:  Convergence failed

.OPERva   c>  
.OPERva   c>  
.OPERva   c>   Calculating wake trajectory ...
 Calculating source influence matrix ...

 Solving BL system ...

 Side 1  free  transition at x/c =  0.7133   69
 Side 2 forced transition at x/c =  1.0000   75

   1   rms: 0.1386E+00   max: 0.5781E+00   D at   69  1
       a =  4.350      CL =  0.7068
      Cm = -0.0787     CD =  0.03701   =>   CDf =  0.00847    CDp =  0.02854

 Side 1  free  transition at x/c =  0.7013   68
 Side 2 forced transition at x/c =  1.0000   75
 idif Ue xi dudx           1  0.17504619      2.79486179E-03   62.631432    
 Uenew xinew           2  3.78538780E-02  6.04391098E-04

   2   rms: 0.7325E+00   max: -.4840E+01   C at   75  2   RLX: 0.103
       a =  4.350      CL =  0.6611
      Cm = -0.0801     CD =  0.03377   =>   CDf =  0.00857    CDp =  0.02519

 Side 1  free  transition at x/c =  0.6925   66
 Side 2 forced transition at x/c =  1.0000   76

   3   rms: 0.2591E+00   max: 0.1679E+01   C at   76  2   RLX: 0.461
       a =  4.350      CL =  0.7588
      Cm = -0.0851     CD =  0.03044   =>   CDf =  0.00820    CDp =  0.02223

 Side 1  free  transition at x/c =  0.7160   69
 Side 2 forced transition at x/c =  1.0000   75

   4   rms: 0.1814E+00   max: 0.7855E+00   D at   71  1
       a =  4.350      CL =  0.7132
      Cm = -0.0795     CD =  0.03553   =>   CDf =  0.00841    CDp =  0.02712

 Side 1  free  transition at x/c =  0.7029   68
 Side 2 forced transition at x/c =  1.0000   75
 idif Ue xi dudx           1  0.17294949      2.76637077E-03   62.518551    
 Uenew xinew           2  3.60044390E-02  5.75900078E-04

   5   rms: 0.1533E+01   max: -.9933E+01   C at   75  2   RLX: 0.050
       a =  4.350      CL =  0.6657
      Cm = -0.0816     CD =  0.03342   =>   CDf =  0.00859    CDp =  0.02483

 Side 1  free  transition at x/c =  0.6933   66
 Side 2 forced transition at x/c =  1.0000   76

   6   rms: 0.2044E+00   max: 0.1297E+01   C at   76  2   RLX: 0.568
       a =  4.350      CL =  0.7557
      Cm = -0.0843     CD =  0.03092   =>   CDf =  0.00822    CDp =  0.02270

 Side 1  free  transition at x/c =  0.7164   69
 Side 2 forced transition at x/c =  1.0000   75

   7   rms: 0.1746E+00   max: 0.7548E+00   D at   72  1
       a =  4.350      CL =  0.7118
      Cm = -0.0793     CD =  0.03553   =>   CDf =  0.00842    CDp =  0.02712

 Side 1  free  transition at x/c =  0.7026   68
 Side 2 forced transition at x/c =  1.0000   75
 idif Ue xi dudx           1  0.17362320      2.77435780E-03   62.581402    
 Uenew xinew           2  3.65404747E-02  5.83887100E-04

   8   rms: 0.1261E+01   max: -.8244E+01   C at   75  2   RLX: 0.061
       a =  4.350      CL =  0.6653
      Cm = -0.0817     CD =  0.03354   =>   CDf =  0.00858    CDp =  0.02496

 Side 1  free  transition at x/c =  0.6931   66
 Side 2 forced transition at x/c =  1.0000   76

   9   rms: 0.2121E+00   max: 0.1335E+01   C at   76  2   RLX: 0.547
       a =  4.350      CL =  0.7555
      Cm = -0.0844     CD =  0.03088   =>   CDf =  0.00821    CDp =  0.02267

 Side 1  free  transition at x/c =  0.7163   69
 Side 2 forced transition at x/c =  1.0000   75

  10   rms: 0.1741E+00   max: 0.7510E+00   D at   72  1
       a =  4.350      CL =  0.7112
      Cm = -0.0793     CD =  0.03559   =>   CDf =  0.00842    CDp =  0.02718
 VISCAL:  Convergence failed

.OPERva   c>  
.OPERva   c>  
.OPERva   c>   Calculating wake trajectory ...
 Calculating source influence matrix ...

 Solving BL system ...

 Side 1  free  transition at x/c =  0.7025   68
 Side 2 forced transition at x/c =  1.0000   75
 idif Ue xi dudx           1  0.17315523      2.76470184E-03   62.630707    
 Uenew xinew           2  3.59645039E-02  5.74231148E-04

   1   rms: 0.1244E+01   max: -.8194E+01   C at   75  2   RLX: 0.061
       a =  4.400      CL =  0.6654
      Cm = -0.0816     CD =  0.03357   =>   CDf =  0.00858    CDp =  0.02499

 Side 1  free  transition at x/c =  0.6930   66
 Side 2 forced transition at x/c =  1.0000   76

   2   rms: 0.2416E+00   max: 0.1464E+01   C at   76  2   RLX: 0.515
       a =  4.400      CL =  0.7647
      Cm = -0.0853     CD =  0.03049   =>   CDf =  0.00821    CDp =  0.02227

 Side 1  free  transition at x/c =  0.7166   69
 Side 2 forced transition at x/c =  1.0000   75

   3   rms: 0.1742E+00   max: 0.7636E+00   D at   71  1
       a =  4.400      CL =  0.7280
      Cm = -0.0807     CD =  0.03502   =>   CDf =  0.00841    CDp =  0.02660

 Side 1  free  transition at x/c =  0.7023   68
 Side 2 forced transition at x/c =  1.0000   75
 idif Ue xi dudx           1  0.15324138      2.47311592E-03   61.962879    
 Uenew xinew           2  1.75135117E-02  2.82645226E-04

   4   rms: 0.1047E+01   max: -.6976E+01   C at   75  2   RLX: 0.072
       a =  4.400      CL =  0.6844
      Cm = -0.0840     CD =  0.03289   =>   CDf =  0.00857    CDp =  0.02432

 Side 1  free  transition at x/c =  0.6930   66
 Side 2 forced transition at x/c =  1.0000   76

   5   rms: 0.2476E+00   max: 0.1557E+01   C at   76  2   RLX: 0.501
       a =  4.400      CL =  0.7776
      Cm = -0.0873     CD =  0.03017   =>   CDf =  0.00820    CDp =  0.02197

 Side 1  free  transition at x/c =  0.7167   69
 Side 2 forced transition at x/c =  1.0000   75

   6   rms: 0.1813E+00   max: 0.7991E+00   D at   71  1
       a =  4.400      CL =  0.7292
      Cm = -0.0809     CD =  0.03475   =>   CDf =  0.00840    CDp =  0.02636

 Side 1  free  transition at x/c =  0.7026   68
 Side 2 forced transition at x/c =  1.0000   75
 idif Ue xi dudx           1  0.15318374      2.46977806E-03   62.023281    
 Uenew xinew           2  1.73235592E-02  2.79307365E-04

   7   rms: 0.1238E+01   max: -.8218E+01   C at   75  2   RLX: 0.061
       a =  4.400      CL =  0.6852
      Cm = -0.0841     CD =  0.03277   =>   CDf =  0.00858    CDp =  0.02420

 Side 1  free  transition at x/c =  0.6932   66
 Side 2 forced transition at x/c =  1.0000   76

   8   rms: 0.2374E+00   max: 0.1485E+01   C at   76  2   RLX: 0.521
       a =  4.400      CL =  0.7773
      Cm = -0.0871     CD =  0.03023   =>   CDf =  0.00820    CDp =  0.02203

 Side 1  free  transition at x/c =  0.7168   69
 Side 2 forced transition at x/c =  1.0000   75

   9   rms: 0.1808E+00   max: 0.8008E+00   D at   71  1
       a =  4.400      CL =  0.7296
      Cm = -0.0809     CD =  0.03472   =>   CDf =  0.00840    CDp =  0.02632

 Side 1  free  transition at x/c =  0.7027   68
 Side 2 forced transition at x/c =  1.0000   75
 idif Ue xi dudx           1  0.15260005      2.46191025E-03   61.984409    
 Uenew xinew           2  1.68250203E-02  2.71439552E-04

  10   rms: 0.1253E+01   max: -.8356E+01   C at   75  2   RLX: 0.060
       a =  4.400      CL =  0.6860
      Cm = -0.0843     CD =  0.03274   =>   CDf =  0.00857    CDp =  0.02416
 VISCAL:  Convergence failed

.OPERva   c>  
.OPERva   c>  
.OPERva   c>   Calculating wake trajectory ...
 Calculating source influence matrix ...

 Solving BL system ...

 Side 1  free  transition at x/c =  0.6933   66
 Side 2 forced transition at x/c =  1.0000   76

   1   rms: 0.2655E+00   max: 0.1581E+01   C at   76  2   RLX: 0.503
       a =  4.450      CL =  0.7869
      Cm = -0.0880     CD =  0.02988   =>   CDf =  0.00820    CDp =  0.02168

 Side 1  free  transition at x/c =  0.7173   69
 Side 2 forced transition at x/c =  1.0000   75

   2   rms: 0.1799E+00   max: 0.8183E+00   D at   71  1
       a =  4.450      CL =  0.7481
      Cm = -0.0826     CD =  0.03401   =>   CDf =  0.00839    CDp =  0.02562

 Side 1  free  transition at x/c =  0.7026   68
 Side 2 forced transition at x/c =  1.0000   75

   3   rms: 0.1148E+01   max: -.7937E+01   C at   75  2   RLX: 0.063
       a =  4.450      CL =  0.7084
      Cm = -0.0872     CD =  0.03186   =>   CDf =  0.00833    CDp =  0.02353

 Side 1  free  transition at x/c =  0.6935   67
 Side 2 forced transition at x/c =  1.0000   75

   4   rms: 0.2391E+00   max: 0.1641E+01   C at   75  2   RLX: 0.506
       a =  4.450      CL =  0.8014
      Cm = -0.0901     CD =  0.02957   =>   CDf =  0.00837    CDp =  0.02120

 Side 1  free  transition at x/c =  0.7175   69
 Side 2 forced transition at x/c =  1.0000   75

   5   rms: 0.1874E+00   max: 0.8563E+00   D at   71  1
       a =  4.450      CL =  0.7504
      Cm = -0.0828     CD =  0.03362   =>   CDf =  0.00837    CDp =  0.02525

 Side 1  free  transition at x/c =  0.7031   68
 Side 2 forced transition at x/c =  1.0000   75

   6   rms: 0.1510E+01   max: -.1045E+02   C at   75  2   RLX: 0.048
       a =  4.450      CL =  0.7108
      Cm = -0.0876     CD =  0.03165   =>   CDf =  0.00834    CDp =  0.02331

 Side 1  free  transition at x/c =  0.6938   67
 Side 2 forced transition at x/c =  1.0000   75

   7   rms: 0.2197E+00   max: 0.1498E+01   C at   75  2   RLX: 0.545
       a =  4.450      CL =  0.8013
      Cm = -0.0898     CD =  0.02969   =>   CDf =  0.00837    CDp =  0.02132

 Side 1  free  transition at x/c =  0.7177   69
 Side 2 forced transition at x/c =  1.0000   75

   8   rms: 0.1873E+00   max: 0.8578E+00   D at   71  1
       a =  4.450      CL =  0.7518
      Cm = -0.0830     CD =  0.03351   =>   CDf =  0.00837    CDp =  0.02514

 Side 1  free  transition at x/c =  0.7032   68
 Side 2 forced transition at x/c =  1.0000   75

   9   rms: 0.1641E+01   max: -.1147E+02   C at   75  2   RLX: 0.044
       a =  4.450      CL =  0.7128
      Cm = -0.0880     CD =  0.03154   =>   CDf =  0.00833    CDp =  0.02321

 Side 1  free  transition at x/c =  0.6940   67
 Side 2 forced transition at x/c =  1.0000   75

  10   rms: 0.2126E+00   max: 0.1467E+01   C at   75  2   RLX: 0.561
       a =  4.450      CL =  0.8020
      Cm = -0.0898     CD =  0.02973   =>   CDf =  0.00837    CDp =  0.02136
 VISCAL:  Convergence failed

.OPERva   c>  
.OPERva   c>  
.OPERva   c>   Calculating wake trajectory ...
 Calculating source influence matrix ...

 Solving BL system ...

 Side 1  free  transition at x/c =  0.7178   69
 Side 2 forced transition at x/c =  1.0000   75

   1   rms: 0.1806E+00   max: 0.8263E+00   D at   71  1
       a =  4.500      CL =  0.7664
      Cm = -0.0842     CD =  0.03316   =>   CDf =  0.00837    CDp =  0.02480

 Side 1  free  transition at x/c =  0.7025   68
 Side 2 forced transition at x/c =  1.0000   75

   2   rms: 0.1092E+01   max: -.7816E+01   C at   75  2   RLX: 0.064
       a =  4.500      CL =  0.7305
      Cm = -0.0901     CD =  0.03101   =>   CDf =  0.00831    CDp =  0.02270

 Side 1  free  transition at x/c =  0.6937   67
 Side 2 forced transition at x/c =  1.0000   75

   3   rms: 0.2486E+00   max: 0.1755E+01   C at   75  2   RLX: 0.495
       a =  4.500      CL =  0.8236
      Cm = -0.0928     CD =  0.02896   =>   CDf =  0.00835    CDp =  0.02060

 MRCHDU: Convergence failed at  85  side 1    Res =  0.1589E+01
 MRCHDU: Convergence failed at  86  side 1    Res =  0.1637E+01
 MRCHDU: Convergence failed at  87  side 1    Res =  0.1602E+01
 Side 1  free  transition at x/c =  0.7181   69
 Side 2 forced transition at x/c =  1.0000   75

   4   rms: 0.2045E+00   max: 0.8954E+00   D at   71  1
       a =  4.500      CL =  0.7680
      Cm = -0.0842     CD =  0.03192   =>   CDf =  0.00835    CDp =  0.02358

 Side 1  free  transition at x/c =  0.7035   68
 Side 2 forced transition at x/c =  1.0000   75

   5   rms: 0.2117E+01   max: -.1486E+02   C at   75  2   RLX: 0.034
       a =  4.500      CL =  0.7311
      Cm = -0.0904     CD =  0.03089   =>   CDf =  0.00833    CDp =  0.02257

 Side 1  free  transition at x/c =  0.6942   67
 Side 2 forced transition at x/c =  1.0000   75

   6   rms: 0.2165E+00   max: 0.1517E+01   C at   75  2   RLX: 0.568
       a =  4.500      CL =  0.8209
      Cm = -0.0918     CD =  0.02925   =>   CDf =  0.00836    CDp =  0.02088

 MRCHDU: Convergence failed at  84  side 1    Res =  0.2165E+01
 MRCHDU: Convergence failed at  85  side 1    Res =  0.2166E+01
 MRCHDU: Convergence failed at  86  side 1    Res =  0.1967E+01
 MRCHDU: Convergence failed at  87  side 1    Res =  0.1810E+01
 Side 1  free  transition at x/c =  0.7184   69
 Side 2 forced transition at x/c =  1.0000   75

   7   rms: 0.2097E+00   max: 0.8955E+00   D at   71  1
       a =  4.500      CL =  0.7682
      Cm = -0.0842     CD =  0.03152   =>   CDf =  0.00835    CDp =  0.02317

 Side 1  free  transition at x/c =  0.7037   68
 Side 2 forced transition at x/c =  1.0000   75

   8   rms: 0.2498E+01   max: -.1755E+02   C at   75  2   RLX: 0.028
       a =  4.500      CL =  0.7315
      Cm = -0.0906     CD =  0.03092   =>   CDf =  0.00833    CDp =  0.02260

 Side 1  free  transition at x/c =  0.6943   67
 Side 2 forced transition at x/c =  1.0000   75

   9   rms: 0.2116E+00   max: 0.1481E+01   C at   75  2   RLX: 0.580
       a =  4.500      CL =  0.8203
      Cm = -0.0916     CD =  0.02931   =>   CDf =  0.00836    CDp =  0.02095

 MRCHDU: Convergence failed at  83  side 1    Res =  0.3887E+01
 MRCHDU: Convergence failed at  84  side 1    Res =  0.2630E+01
 MRCHDU: Convergence failed at  85  side 1    Res =  0.2431E+01
 MRCHDU: Convergence failed at  86  side 1    Res =  0.2130E+01
 MRCHDU: Convergence failed at  87  side 1    Res =  0.1926E+01
 Side 1  free  transition at x/c =  0.7185   69
 Side 2 forced transition at x/c =  1.0000   75

  10   rms: 0.2174E+00   max: 0.8948E+00   D at   71  1
       a =  4.500      CL =  0.7662
      Cm = -0.0839     CD =  0.03117   =>   CDf =  0.00835    CDp =  0.02282
 VISCAL:  Convergence failed

.OPERva   c>  
.OPERva   c>  
.OPERva   c>   Calculating wake trajectory ...
 Calculating source influence matrix ...

 Solving BL system ...

 Side 1  free  transition at x/c =  0.7037   68
 Side 2 forced transition at x/c =  1.0000   75

   1   rms: 0.2606E+01   max: -.1806E+02   C at   75  2   RLX: 0.028
       a =  4.550      CL =  0.7286
      Cm = -0.0902     CD =  0.03112   =>   CDf =  0.00833    CDp =  0.02279

 Side 1  free  transition at x/c =  0.6941   67
 Side 2 forced transition at x/c =  1.0000   75

   2   rms: 0.2445E+00   max: 0.1625E+01   C at   75  2   RLX: 0.541
       a =  4.550      CL =  0.8285
      Cm = -0.0925     CD =  0.02888   =>   CDf =  0.00837    CDp =  0.02051

 MRCHDU: Convergence failed at  83  side 1    Res =  0.6032E+01
 MRCHDU: Convergence failed at  84  side 1    Res =  0.4504E+01
 MRCHDU: Convergence failed at  85  side 1    Res =  0.2893E+01
 MRCHDU: Convergence failed at  86  side 1    Res =  0.2426E+01
 MRCHDU: Convergence failed at  87  side 1    Res =  0.2120E+01
 Side 1  free  transition at x/c =  0.7188   69
 Side 2 forced transition at x/c =  1.0000   75

   3   rms: 0.2148E+00   max: 0.9015E+00   D at   71  1
       a =  4.550      CL =  0.7797
      Cm = -0.0846     CD =  0.03065   =>   CDf =  0.00835    CDp =  0.02230

 MRCHDU: Convergence failed at  82  side 1    Res =  0.3639E+02
 MRCHDU: Convergence failed at  83  side 1    Res =  0.1620E+02
 MRCHDU: Convergence failed at  84  side 1    Res =  0.7829E+01
 MRCHDU: Convergence failed at  85  side 1    Res =  0.3759E+01
 MRCHDU: Convergence failed at  86  side 1    Res =  0.3290E+01
 MRCHDU: Convergence failed at  87  side 1    Res =  0.2847E+01
 Side 1  free  transition at x/c =  0.7034   68
 Side 2 forced transition at x/c =  1.0000   75

   4   rms: 0.6537E+00   max: -.3614E+01   C at   75  2   RLX: 0.138
       a =  4.550      CL =  0.7473
      Cm = -0.0952     CD =  0.02860   =>   CDf =  0.00832    CDp =  0.02028

 Side 1  free  transition at x/c =  0.6902   67
 Side 2 forced transition at x/c =  1.0000   75

   5   rms: 0.4436E+00   max: 0.2813E+01   C at   75  2   RLX: 0.269
       a =  4.550      CL =  0.8321
      Cm = -0.0958     CD =  0.02760   =>   CDf =  0.00833    CDp =  0.01927

 Side 1  free  transition at x/c =  0.7151   69
 Side 2 forced transition at x/c =  1.0000   75

   6   rms: 0.1681E+00   max: 0.7285E+00   D at   71  1
       a =  4.550      CL =  0.7700
      Cm = -0.0840     CD =  0.03365   =>   CDf =  0.00835    CDp =  0.02530

 Side 1  free  transition at x/c =  0.7004   68
 Side 2 forced transition at x/c =  1.0000   75

   7   rms: 0.5759E+00   max: -.3805E+01   C at   75  2   RLX: 0.131
       a =  4.550      CL =  0.7303
      Cm = -0.0885     CD =  0.03177   =>   CDf =  0.00831    CDp =  0.02346

 Side 1  free  transition at x/c =  0.6916   67
 Side 2 forced transition at x/c =  1.0000   75

   8   rms: 0.4123E+00   max: 0.2791E+01   C at   75  2   RLX: 0.317
       a =  4.550      CL =  0.8363
      Cm = -0.0949     CD =  0.02781   =>   CDf =  0.00835    CDp =  0.01946

 Side 1  free  transition at x/c =  0.7170   69
 Side 2 forced transition at x/c =  1.0000   75

   9   rms: 0.1872E+00   max: 0.9040E+00   D at   71  1
       a =  4.550      CL =  0.7852
      Cm = -0.0858     CD =  0.03245   =>   CDf =  0.00835    CDp =  0.02410

 MRCHDU: Convergence failed at  87  side 1    Res =  0.1650E+01
 Side 1  free  transition at x/c =  0.7028   68
 Side 2 forced transition at x/c =  1.0000   75

  10   rms: 0.1243E+01   max: -.9047E+01   C at   75  2   RLX: 0.055
       a =  4.550      CL =  0.7525
      Cm = -0.0927     CD =  0.02982   =>   CDf =  0.00829    CDp =  0.02153
 VISCAL:  Convergence failed

.OPERva   c>  
.OPERva   c>  
.OPERva   c>   Calculating wake trajectory ...
 Calculating source influence matrix ...

 Solving BL system ...

 Side 1  free  transition at x/c =  0.6940   67
 Side 2 forced transition at x/c =  1.0000   75

   1   rms: 0.2697E+00   max: 0.1866E+01   C at   75  2   RLX: 0.492
       a =  4.600      CL =  0.8542
      Cm = -0.0958     CD =  0.02808   =>   CDf =  0.00811    CDp =  0.01996

 MRCHDU: Convergence failed at  84  side 1    Res =  0.3286E+02
 MRCHDU: Convergence failed at  85  side 1    Res =  0.1049E+02
 MRCHDU: Convergence failed at  86  side 1    Res =  0.6881E+01
 MRCHDU: Convergence failed at  87  side 1    Res =  0.4892E+01
 MRCHDU: Convergence failed at  88  side 1    Res =  0.3780E+01
 Side 1  free  transition at x/c =  0.7193   70
 Side 2 forced transition at x/c =  1.0000   74
