
 ===================================================
  XFOIL Version 6.99
  Copyright (C) 2000   Mark Drela, Harold Youngren

  This software comes with ABSOLUTELY NO WARRANTY,
    subject to the GNU General Public License.

  Caveat computor
 ===================================================

 File  xfoil.def  not found

   QUIT    Exit program

  .OPER    Direct operating point(s)
  .MDES    Complex mapping design routine
  .QDES    Surface speed design routine
  .GDES    Geometry design routine

   SAVE f  Write airfoil to labeled coordinate file
   PSAV f  Write airfoil to plain coordinate file
   ISAV f  Write airfoil to ISES coordinate file
   MSAV f  Write airfoil to MSES coordinate file
   REVE    Reverse written-airfoil node ordering

   LOAD f  Read buffer airfoil from coordinate file
   NACA i  Set NACA 4,5-digit airfoil and buffer airfoil
   INTE    Set buffer airfoil by interpolating two airfoils
   NORM    Buffer airfoil normalization toggle
   XYCM rr Change CM reference location, currently  0.25000 0.00000

   BEND    Display structural properties of current airfoil

   PCOP    Set current-airfoil panel nodes directly from buffer airfoil points
   PANE    Set current-airfoil panel nodes ( 160 ) based on curvature
  .PPAR    Show/change paneling

  .PLOP    Plotting options

   WDEF f  Write  current-settings file
   RDEF f  Reread current-settings file
   NAME s  Specify new airfoil name
   NINC    Increment name version number

   Z       Zoom    | (available in all menus)
   U       Unzoom  | 

 XFOIL   c>  
 Labeled airfoil file.  Name:  SG6040                                          

 Number of input coordinate points:  81
 Counterclockwise ordering
 Max thickness =     0.160016  at x =   0.353
 Max camber    =     0.025156  at x =   0.582

  LE  x,y  =   0.00009  -0.00040  |   Chord =   0.99991
  TE  x,y  =   1.00000   0.00000  |

 Current airfoil nodes set from buffer airfoil nodes (  81 )

 XFOIL   c>  
  F  disk file
  C  current airfoil  SG6040                                          

  Select source of airfoil "0" ( F C ):  
Enter filename   s>  
  Select source of airfoil "1" ( F C ):  
Enter filename   s>  
 airfoil "0":  SG6040                                          
 airfoil "1":  WORTMANN FX 63-137 AIRFOIL                      

Specify interpolating fraction  0...1   r>   Max thickness =     0.155421  at x =   0.352
 Max camber    =     0.031211  at x =   0.568

Enter new airfoil name   s>  
 Result has been placed in buffer airfoil
 Execute PCOP or PANE to set new current airfoil

 XFOIL   c>  
 Sharp trailing edge

 Paneling parameters used...
   Number of panel nodes       160
   Panel bunching parameter    1.000
   TE/LE panel density ratio   0.150
   Refined-area/LE panel density ratio    0.200
   Top    side refined area x/c limits  1.000 1.000
   Bottom side refined area x/c limits  1.000 1.000

 XFOIL   c>  
 XFOIL   c>  
 XFOIL   c>  
.OPERi   c>  
.OPERi   c>  
 Sonic Cp =   -550.04      Sonic Q/Qinf =    26.096


.OPERi   c>  
 M  =    0.0350
 Re =     30000

.OPERv   c>  
 Polar  1 newly created for accumulation
 Airfoil archived with polar: BlendedAirfoil                                  

Enter  polar save filename  OR  <return> for no file   s>  
 Polar save file will NOT be written

Enter  polar dump filename  OR  <return> for no file   s>  
 Polar dump file will NOT be written

 Polar accumulation enabled

.OPERva   c>   Calculating unit vorticity distributions ...
 Calculating wake trajectory ...
 Calculating source influence matrix ...

 Solving BL system ...

 Initializing BL ...
    side            1  ...
 MRCHUE: Inverse mode at  53     Hk =   3.800
 MRCHUE: Inverse mode at  54     Hk =   3.982
 MRCHUE: Inverse mode at  55     Hk =   4.160
 MRCHUE: Inverse mode at  56     Hk =   4.334
 MRCHUE: Inverse mode at  57     Hk =   4.504
 MRCHUE: Inverse mode at  58     Hk =   4.672
 MRCHUE: Inverse mode at  59     Hk =   4.837
 MRCHUE: Inverse mode at  60     Hk =   4.999
 MRCHUE: Inverse mode at  61     Hk =   5.158
 MRCHUE: Inverse mode at  62     Hk =   5.316
 MRCHUE: Inverse mode at  63     Hk =   5.471
 MRCHUE: Inverse mode at  64     Hk =   5.625
 MRCHUE: Inverse mode at  65     Hk =   5.777
 MRCHUE: Inverse mode at  66     Hk =   5.927
 MRCHUE: Inverse mode at  67     Hk =   6.076
 MRCHUE: Inverse mode at  68     Hk =   6.225
 MRCHUE: Inverse mode at  69     Hk =   6.372
 MRCHUE: Inverse mode at  70     Hk =   6.517
 MRCHUE: Inverse mode at  71     Hk =   6.661
 MRCHUE: Inverse mode at  72     Hk =   6.803
 MRCHUE: Inverse mode at  73     Hk =   6.944
 MRCHUE: Inverse mode at  74     Hk =   7.083
 MRCHUE: Inverse mode at  75     Hk =   7.219
 MRCHUE: Inverse mode at  76     Hk =   7.352
 MRCHUE: Inverse mode at  77     Hk =   7.481
 MRCHUE: Inverse mode at  78     Hk =   7.603
 MRCHUE: Inverse mode at  79     Hk =   7.719
 MRCHUE: Inverse mode at  80     Hk =   7.829
 MRCHUE: Inverse mode at  81     Hk =   7.929
 MRCHUE: Inverse mode at  82     Hk =   8.016
 MRCHUE: Inverse mode at  83     Hk =   8.067
    side            2  ...
 MRCHUE: Inverse mode at  48     Hk =   3.800
 MRCHUE: Inverse mode at  49     Hk =   3.969
 MRCHUE: Inverse mode at  50     Hk =   4.136
 MRCHUE: Inverse mode at  51     Hk =   4.300
 MRCHUE: Inverse mode at  52     Hk =   4.462
 MRCHUE: Inverse mode at  53     Hk =   4.622
 MRCHUE: Inverse mode at  54     Hk =   4.779
 MRCHUE: Inverse mode at  55     Hk =   4.934
 MRCHUE: Inverse mode at  56     Hk =   5.086
 MRCHUE: Convergence failed at  57  side 2    Res =  0.2465E+01
 MRCHUE: Inverse mode at  58     Hk =   5.232
 MRCHUE: Inverse mode at  59     Hk =   5.374
 MRCHUE: Inverse mode at  60     Hk =   5.514
 MRCHUE: Convergence failed at  61  side 2    Res =  0.1797E+01
 MRCHUE: Inverse mode at  62     Hk =   5.648
 MRCHUE: Inverse mode at  63     Hk =   5.780
 MRCHUE: Inverse mode at  64     Hk =   5.910
 MRCHUE: Inverse mode at  65     Hk =   6.037
 MRCHUE: Inverse mode at  66     Hk =   6.161
 MRCHUE: Inverse mode at  67     Hk =   6.283
 MRCHUE: Inverse mode at  68     Hk =   6.403
 MRCHUE: Inverse mode at  69     Hk =   6.521
 MRCHUE: Inverse mode at  70     Hk =   6.636
 MRCHUE: Inverse mode at  71     Hk =   6.749
 MRCHUE: Inverse mode at  72     Hk =   6.859
 MRCHUE: Inverse mode at  73     Hk =   6.965
 MRCHUE: Inverse mode at  74     Hk =   7.067
 MRCHUE: Inverse mode at  75     Hk =   7.164
 MRCHUE: Inverse mode at  76     Hk =   7.253
 MRCHUE: Inverse mode at  77     Hk =   7.335
 MRCHUE: Inverse mode at  78     Hk =   7.408
 MRCHUE: Inverse mode at  79     Hk =   7.452
 MRCHUE: Inverse mode at  81     Hk =   5.538
 MRCHUE: Inverse mode at  82     Hk =   4.475
 MRCHUE: Inverse mode at  83     Hk =   3.848
 MRCHUE: Inverse mode at  84     Hk =   3.430
 MRCHUE: Inverse mode at  85     Hk =   3.127

 Side 1 forced transition at x/c =  1.0000   83
 Side 2 forced transition at x/c =  1.0000   79
 idif Ue xi dudx           2  0.39601704      5.09917736E-03   77.662926    
 Uenew xinew           3  0.25201589      3.24499607E-03

   1   rms: 0.9133E+00   max: 0.4684E+01   D at   86  2   RLX: 0.320
       a =  0.000      CL =  0.2979
      Cm = -0.0959     CD =  0.01301   =>   CDf =  0.01438    CDp = -0.00137

 Side 1 forced transition at x/c =  1.0000   81
 Side 2 forced transition at x/c =  1.0000   81
 idif Ue xi dudx           2  0.37082201      6.00910187E-03   61.710056    
 Uenew xinew           3  0.24815385      4.02128696E-03

   2   rms: 0.4700E+00   max: 0.2100E+01   D at   90  2   RLX: 0.615
       a =  0.000      CL = -0.0157
      Cm = -0.0375     CD =  0.02159   =>   CDf =  0.01349    CDp =  0.00809

 MRCHDU: Convergence failed at  91  side 2    Res =  0.3870E+01
 MRCHDU: Convergence failed at  92  side 2    Res =  0.2234E+01
 MRCHDU: Convergence failed at  93  side 2    Res =  0.1617E+02
 MRCHDU: Convergence failed at  94  side 2    Res =  0.4263E+01
 Side 1 forced transition at x/c =  1.0000   79
 Side 2 forced transition at x/c =  1.0000   83
 idif Ue xi dudx           1  0.24256538      4.34076786E-03   55.880753    
 Uenew xinew           2  0.12107285      2.16662884E-03

   3   rms: 0.2123E+00   max: 0.9672E+00   D at   90  2
       a =  0.000      CL = -0.1899
      Cm = -0.0039     CD =  0.03593   =>   CDf =  0.01225    CDp =  0.02368

 Side 1 forced transition at x/c =  1.0000   78
 Side 2 forced transition at x/c =  1.0000   84

   4   rms: 0.4088E-01   max: 0.4021E+00   C at   84  2
       a =  0.000      CL = -0.1585
      Cm = -0.0088     CD =  0.04264   =>   CDf =  0.01116    CDp =  0.03148

 Side 1 forced transition at x/c =  1.0000   78
 Side 2 forced transition at x/c =  1.0000   84

   5   rms: 0.2500E-02   max: 0.1649E-01   C at   84  2
       a =  0.000      CL = -0.1572
      Cm = -0.0090     CD =  0.04266   =>   CDf =  0.01113    CDp =  0.03152

 Side 1 forced transition at x/c =  1.0000   78
 Side 2 forced transition at x/c =  1.0000   84

   6   rms: 0.2849E-04   max: 0.2189E-03   D at   96  2
       a =  0.000      CL = -0.1572
      Cm = -0.0090     CD =  0.04264   =>   CDf =  0.01113    CDp =  0.03151
 plradd ia,ip,cpol            1          77  1.17144492E-02

 Point added to stored polar  1
 Save file unspecified or not available
 Dump file unspecified or not available

.OPERva   c>  
.OPERva   c>  
.OPERva   c>   Calculating wake trajectory ...
 Calculating source influence matrix ...

 Solving BL system ...

 Side 1 forced transition at x/c =  1.0000   78
 Side 2 forced transition at x/c =  1.0000   84

   1   rms: 0.1082E-01   max: 0.9054E-01   D at    5  1   RLX: 0.665
       a =  0.050      CL = -0.1579
      Cm = -0.0087     CD =  0.04257   =>   CDf =  0.01113    CDp =  0.03144

 Side 1 forced transition at x/c =  1.0000   78
 Side 2 forced transition at x/c =  1.0000   84

   2   rms: 0.3606E-02   max: 0.2974E-01   D at    5  1
       a =  0.050      CL = -0.1581
      Cm = -0.0085     CD =  0.04254   =>   CDf =  0.01114    CDp =  0.03139

 Side 1 forced transition at x/c =  1.0000   78
 Side 2 forced transition at x/c =  1.0000   84

   3   rms: 0.4717E-04   max: 0.2940E-03   C at   84  2
       a =  0.050      CL = -0.1581
      Cm = -0.0085     CD =  0.04253   =>   CDf =  0.01115    CDp =  0.03139
 plradd ia,ip,cpol            2          77  1.17144492E-02

 Point added to stored polar  1
 Save file unspecified or not available
 Dump file unspecified or not available

.OPERva   c>  
.OPERva   c>  
.OPERva   c>   Calculating wake trajectory ...
 Calculating source influence matrix ...

 Solving BL system ...

 Side 1 forced transition at x/c =  1.0000   78
 Side 2 forced transition at x/c =  1.0000   84

   1   rms: 0.1174E-01   max: -.1476E+00   D at    3  1   RLX: 0.659
       a =  0.100      CL = -0.1587
      Cm = -0.0082     CD =  0.04247   =>   CDf =  0.01114    CDp =  0.03132

 Side 1 forced transition at x/c =  1.0000   78
 Side 2 forced transition at x/c =  1.0000   84

   2   rms: 0.4079E-02   max: -.5117E-01   D at    3  1
       a =  0.100      CL = -0.1590
      Cm = -0.0081     CD =  0.04243   =>   CDf =  0.01115    CDp =  0.03128

 Side 1 forced transition at x/c =  1.0000   78
 Side 2 forced transition at x/c =  1.0000   84

   3   rms: 0.4943E-04   max: -.3739E-03   D at    3  1
       a =  0.100      CL = -0.1590
      Cm = -0.0081     CD =  0.04243   =>   CDf =  0.01116    CDp =  0.03127
 plradd ia,ip,cpol            3          77  1.17144492E-02

 Point added to stored polar  1
 Save file unspecified or not available
 Dump file unspecified or not available

.OPERva   c>  
.OPERva   c>  
.OPERva   c>   Calculating wake trajectory ...
 Calculating source influence matrix ...

 Solving BL system ...

 Side 1 forced transition at x/c =  1.0000   78
 Side 2 forced transition at x/c =  1.0000   84

   1   rms: 0.8726E-02   max: 0.7124E-01   D at    3  1   RLX: 0.653
       a =  0.150      CL = -0.1596
      Cm = -0.0078     CD =  0.04236   =>   CDf =  0.01116    CDp =  0.03120

 Side 1 forced transition at x/c =  1.0000   78
 Side 2 forced transition at x/c =  1.0000   84

   2   rms: 0.2976E-02   max: 0.2328E-01   D at    3  1
       a =  0.150      CL = -0.1599
      Cm = -0.0076     CD =  0.04232   =>   CDf =  0.01117    CDp =  0.03116

 Side 1 forced transition at x/c =  1.0000   78
 Side 2 forced transition at x/c =  1.0000   84

   3   rms: 0.4273E-04   max: -.2943E-03   D at   97  2
       a =  0.150      CL = -0.1598
      Cm = -0.0076     CD =  0.04232   =>   CDf =  0.01117    CDp =  0.03115
 plradd ia,ip,cpol            4          77  1.45025728E-02

 Point added to stored polar  1
 Save file unspecified or not available
 Dump file unspecified or not available

.OPERva   c>  
.OPERva   c>  
.OPERva   c>   Calculating wake trajectory ...
 Calculating source influence matrix ...

 Solving BL system ...

 Side 1 forced transition at x/c =  1.0000   78
 Side 2 forced transition at x/c =  1.0000   84

   1   rms: 0.1015E-01   max: -.1080E+00   D at    3  1   RLX: 0.647
       a =  0.200      CL = -0.1604
      Cm = -0.0073     CD =  0.04226   =>   CDf =  0.01117    CDp =  0.03109

 Side 1 forced transition at x/c =  1.0000   78
 Side 2 forced transition at x/c =  1.0000   84

   2   rms: 0.3710E-02   max: -.4006E-01   D at    3  1
       a =  0.200      CL = -0.1607
      Cm = -0.0072     CD =  0.04222   =>   CDf =  0.01118    CDp =  0.03104

 Side 1 forced transition at x/c =  1.0000   78
 Side 2 forced transition at x/c =  1.0000   84

   3   rms: 0.4672E-04   max: -.3262E-03   D at    3  1
       a =  0.200      CL = -0.1607
      Cm = -0.0072     CD =  0.04222   =>   CDf =  0.01118    CDp =  0.03103
 plradd ia,ip,cpol            5          77  1.17144492E-02

 Point added to stored polar  1
 Save file unspecified or not available
 Dump file unspecified or not available

.OPERva   c>  
.OPERva   c>  
.OPERva   c>   Calculating wake trajectory ...
 Calculating source influence matrix ...

 Solving BL system ...

 Side 1 forced transition at x/c =  1.0000   78
 Side 2 forced transition at x/c =  1.0000   84

   1   rms: 0.1327E-01   max: -.1968E+00   D at    3  2   RLX: 0.641
       a =  0.250      CL = -0.1612
      Cm = -0.0069     CD =  0.04215   =>   CDf =  0.01118    CDp =  0.03097

 Side 1 forced transition at x/c =  1.0000   78
 Side 2 forced transition at x/c =  1.0000   84

   2   rms: 0.5077E-02   max: -.7418E-01   D at    3  2
       a =  0.250      CL = -0.1614
      Cm = -0.0068     CD =  0.04211   =>   CDf =  0.01119    CDp =  0.03092

 Side 1 forced transition at x/c =  1.0000   78
 Side 2 forced transition at x/c =  1.0000   84

   3   rms: 0.7679E-04   max: -.9377E-03   D at    3  2
       a =  0.250      CL = -0.1614
      Cm = -0.0068     CD =  0.04211   =>   CDf =  0.01120    CDp =  0.03091
 plradd ia,ip,cpol            6          77  4.15803418E-02

 Point added to stored polar  1
 Save file unspecified or not available
 Dump file unspecified or not available

.OPERva   c>  
.OPERva   c>  
.OPERva   c>   Calculating wake trajectory ...
 Calculating source influence matrix ...

 Solving BL system ...

 Side 1 forced transition at x/c =  1.0000   78
 Side 2 forced transition at x/c =  1.0000   84

   1   rms: 0.1074E-01   max: 0.1135E+00   D at    3  2   RLX: 0.636
       a =  0.300      CL = -0.1619
      Cm = -0.0065     CD =  0.04204   =>   CDf =  0.01120    CDp =  0.03085

 Side 1 forced transition at x/c =  1.0000   78
 Side 2 forced transition at x/c =  1.0000   84

   2   rms: 0.3746E-02   max: 0.4134E-01   D at    3  2
       a =  0.300      CL = -0.1622
      Cm = -0.0063     CD =  0.04201   =>   CDf =  0.01121    CDp =  0.03080

 Side 1 forced transition at x/c =  1.0000   78
 Side 2 forced transition at x/c =  1.0000   84

   3   rms: 0.4250E-04   max: -.2951E-03   D at   97  2
       a =  0.300      CL = -0.1622
      Cm = -0.0063     CD =  0.04200   =>   CDf =  0.01121    CDp =  0.03079
 plradd ia,ip,cpol            7          77  3.53892110E-02

 Point added to stored polar  1
 Save file unspecified or not available
 Dump file unspecified or not available

.OPERva   c>  
.OPERva   c>  
.OPERva   c>   Calculating wake trajectory ...
 Calculating source influence matrix ...

 Solving BL system ...

 Side 1 forced transition at x/c =  1.0000   78
 Side 2 forced transition at x/c =  1.0000   84

   1   rms: 0.7335E-02   max: -.4744E-01   C at   84  2   RLX: 0.630
       a =  0.350      CL = -0.1626
      Cm = -0.0061     CD =  0.04194   =>   CDf =  0.01121    CDp =  0.03073

 Side 1 forced transition at x/c =  1.0000   78
 Side 2 forced transition at x/c =  1.0000   84

   2   rms: 0.2694E-02   max: -.1754E-01   C at   84  2
       a =  0.350      CL = -0.1629
      Cm = -0.0059     CD =  0.04190   =>   CDf =  0.01122    CDp =  0.03068

 Side 1 forced transition at x/c =  1.0000   78
 Side 2 forced transition at x/c =  1.0000   84

   3   rms: 0.4499E-04   max: 0.3560E-03   C at   84  2
       a =  0.350      CL = -0.1629
      Cm = -0.0059     CD =  0.04189   =>   CDf =  0.01123    CDp =  0.03067
 plradd ia,ip,cpol            8          77  3.53892110E-02

 Point added to stored polar  1
 Save file unspecified or not available
 Dump file unspecified or not available

.OPERva   c>  
.OPERva   c>  
.OPERva   c>   Calculating wake trajectory ...
 Calculating source influence matrix ...

 Solving BL system ...

 Side 1 forced transition at x/c =  1.0000   78
 Side 2 forced transition at x/c =  1.0000   84

   1   rms: 0.1061E-01   max: -.8735E-01   T at    2  2   RLX: 0.625
       a =  0.400      CL = -0.1633
      Cm = -0.0056     CD =  0.04183   =>   CDf =  0.01123    CDp =  0.03061

 Side 1 forced transition at x/c =  1.0000   78
 Side 2 forced transition at x/c =  1.0000   84

   2   rms: 0.3694E-02   max: -.2898E-01   T at    2  1
       a =  0.400      CL = -0.1635
      Cm = -0.0055     CD =  0.04179   =>   CDf =  0.01123    CDp =  0.03056

 Side 1 forced transition at x/c =  1.0000   78
 Side 2 forced transition at x/c =  1.0000   84

   3   rms: 0.5511E-04   max: 0.4229E-03   C at   84  2
       a =  0.400      CL = -0.1635
      Cm = -0.0055     CD =  0.04179   =>   CDf =  0.01124    CDp =  0.03055
 plradd ia,ip,cpol            9          77  3.53892110E-02

 Point added to stored polar  1
 Save file unspecified or not available
 Dump file unspecified or not available

.OPERva   c>  
.OPERva   c>  
.OPERva   c>   Calculating wake trajectory ...
 Calculating source influence matrix ...

 Solving BL system ...

 Side 1 forced transition at x/c =  1.0000   78
 Side 2 forced transition at x/c =  1.0000   84

   1   rms: 0.1158E-01   max: -.1001E+00   D at    3  1   RLX: 0.620
       a =  0.450      CL = -0.1640
      Cm = -0.0052     CD =  0.04173   =>   CDf =  0.01124    CDp =  0.03049

 Side 1 forced transition at x/c =  1.0000   78
 Side 2 forced transition at x/c =  1.0000   84

   2   rms: 0.4703E-02   max: -.4097E-01   D at    3  1
       a =  0.450      CL = -0.1641
      Cm = -0.0051     CD =  0.04169   =>   CDf =  0.01125    CDp =  0.03044

 Side 1 forced transition at x/c =  1.0000   78
 Side 2 forced transition at x/c =  1.0000   84

   3   rms: 0.7157E-04   max: 0.5745E-03   C at   84  2
       a =  0.450      CL = -0.1641
      Cm = -0.0051     CD =  0.04169   =>   CDf =  0.01125    CDp =  0.03043
 plradd ia,ip,cpol           10          77  3.53892110E-02

 Point added to stored polar  1
 Save file unspecified or not available
 Dump file unspecified or not available

.OPERva   c>  
.OPERva   c>  
.OPERva   c>   Calculating wake trajectory ...
 Calculating source influence matrix ...

 Solving BL system ...

 Side 1 forced transition at x/c =  1.0000   78
 Side 2 forced transition at x/c =  1.0000   84

   1   rms: 0.1025E-01   max: 0.8554E-01   D at    3  2   RLX: 0.615
       a =  0.500      CL = -0.1645
      Cm = -0.0048     CD =  0.04163   =>   CDf =  0.01125    CDp =  0.03037

 Side 1 forced transition at x/c =  1.0000   78
 Side 2 forced transition at x/c =  1.0000   84

   2   rms: 0.3885E-02   max: 0.3324E-01   D at    3  2
       a =  0.500      CL = -0.1646
      Cm = -0.0047     CD =  0.04159   =>   CDf =  0.01126    CDp =  0.03033

 Side 1 forced transition at x/c =  1.0000   78
 Side 2 forced transition at x/c =  1.0000   84

   3   rms: 0.7107E-04   max: 0.6922E-03   C at   84  2
       a =  0.500      CL = -0.1645
      Cm = -0.0047     CD =  0.04159   =>   CDf =  0.01127    CDp =  0.03032
 plradd ia,ip,cpol           11          77  4.15803418E-02

 Point added to stored polar  1
 Save file unspecified or not available
 Dump file unspecified or not available

.OPERva   c>  
.OPERva   c>  
.OPERva   c>   Calculating wake trajectory ...
 Calculating source influence matrix ...

 Solving BL system ...

 Side 1 forced transition at x/c =  1.0000   78
 Side 2 forced transition at x/c =  1.0000   84

   1   rms: 0.8201E-02   max: -.5673E-01   C at   84  2   RLX: 0.610
       a =  0.550      CL = -0.1648
      Cm = -0.0045     CD =  0.04154   =>   CDf =  0.01127    CDp =  0.03027

 Side 1 forced transition at x/c =  1.0000   78
 Side 2 forced transition at x/c =  1.0000   84

   2   rms: 0.3179E-02   max: -.2107E-01   C at   84  2
       a =  0.550      CL = -0.1649
      Cm = -0.0043     CD =  0.04150   =>   CDf =  0.01128    CDp =  0.03022

 Side 1 forced transition at x/c =  1.0000   78
 Side 2 forced transition at x/c =  1.0000   84

   3   rms: 0.7179E-04   max: 0.7563E-03   C at   84  2
       a =  0.550      CL = -0.1648
      Cm = -0.0043     CD =  0.04150   =>   CDf =  0.01129    CDp =  0.03021
 plradd ia,ip,cpol           12          77  4.15803418E-02

 Point added to stored polar  1
 Save file unspecified or not available
 Dump file unspecified or not available

.OPERva   c>  
.OPERva   c>  
.OPERva   c>   Calculating wake trajectory ...
 Calculating source influence matrix ...

 Solving BL system ...

 Side 1 forced transition at x/c =  1.0000   78
 Side 2 forced transition at x/c =  1.0000   84

   1   rms: 0.9834E-02   max: 0.1044E+00   D at    3  1   RLX: 0.605
       a =  0.600      CL = -0.1650
      Cm = -0.0041     CD =  0.04145   =>   CDf =  0.01129    CDp =  0.03016

 Side 1 forced transition at x/c =  1.0000   78
 Side 2 forced transition at x/c =  1.0000   84

   2   rms: 0.3687E-02   max: 0.3812E-01   D at    3  1
       a =  0.600      CL = -0.1649
      Cm = -0.0040     CD =  0.04142   =>   CDf =  0.01130    CDp =  0.03012

 Side 1 forced transition at x/c =  1.0000   78
 Side 2 forced transition at x/c =  1.0000   84

   3   rms: 0.7771E-04   max: 0.7590E-03   C at   84  2
       a =  0.600      CL = -0.1648
      Cm = -0.0040     CD =  0.04142   =>   CDf =  0.01130    CDp =  0.03011
 plradd ia,ip,cpol           13          77  4.15803418E-02

 Point added to stored polar  1
 Save file unspecified or not available
 Dump file unspecified or not available

.OPERva   c>  
.OPERva   c>  
.OPERva   c>   Calculating wake trajectory ...
 Calculating source influence matrix ...

 Solving BL system ...

 Side 1 forced transition at x/c =  1.0000   78
 Side 2 forced transition at x/c =  1.0000   84

   1   rms: 0.8544E-02   max: 0.6082E-01   D at    3  2   RLX: 0.601
       a =  0.650      CL = -0.1648
      Cm = -0.0039     CD =  0.04138   =>   CDf =  0.01130    CDp =  0.03007

 Side 1 forced transition at x/c =  1.0000   78
 Side 2 forced transition at x/c =  1.0000   84

   2   rms: 0.3376E-02   max: 0.2446E-01   D at    3  2
       a =  0.650      CL = -0.1647
      Cm = -0.0038     CD =  0.04135   =>   CDf =  0.01131    CDp =  0.03003

 Side 1 forced transition at x/c =  1.0000   78
 Side 2 forced transition at x/c =  1.0000   84

   3   rms: 0.6816E-04   max: 0.7549E-03   C at   84  2
       a =  0.650      CL = -0.1646
      Cm = -0.0038     CD =  0.04135   =>   CDf =  0.01132    CDp =  0.03002
 plradd ia,ip,cpol           14          77  4.15803418E-02

 Point added to stored polar  1
 Save file unspecified or not available
 Dump file unspecified or not available

.OPERva   c>  
.OPERva   c>  
.OPERva   c>   Calculating wake trajectory ...
 Calculating source influence matrix ...

 Solving BL system ...

 Side 1 forced transition at x/c =  1.0000   78
 Side 2 forced transition at x/c =  1.0000   84

   1   rms: 0.8280E-02   max: -.5921E-01   C at   84  2   RLX: 0.597
       a =  0.700      CL = -0.1645
      Cm = -0.0036     CD =  0.04132   =>   CDf =  0.01132    CDp =  0.03000

 Side 1 forced transition at x/c =  1.0000   78
 Side 2 forced transition at x/c =  1.0000   84

   2   rms: 0.3325E-02   max: -.2349E-01   D at    5  2
       a =  0.700      CL = -0.1642
      Cm = -0.0035     CD =  0.04130   =>   CDf =  0.01133    CDp =  0.02996

 Side 1 forced transition at x/c =  1.0000   78
 Side 2 forced transition at x/c =  1.0000   84

   3   rms: 0.6321E-04   max: 0.7324E-03   C at   84  2
       a =  0.700      CL = -0.1642
      Cm = -0.0035     CD =  0.04129   =>   CDf =  0.01134    CDp =  0.02995
 plradd ia,ip,cpol           15          77  4.15803418E-02

 Point added to stored polar  1
 Save file unspecified or not available
 Dump file unspecified or not available

.OPERva   c>  
.OPERva   c>  
.OPERva   c>   Calculating wake trajectory ...
 Calculating source influence matrix ...

 Solving BL system ...

 Side 1 forced transition at x/c =  1.0000   78
 Side 2 forced transition at x/c =  1.0000   84

   1   rms: 0.8994E-02   max: -.8372E-01   D at    3  1   RLX: 0.593
       a =  0.750      CL = -0.1638
      Cm = -0.0034     CD =  0.04127   =>   CDf =  0.01134    CDp =  0.02993

 Side 1 forced transition at x/c =  1.0000   78
 Side 2 forced transition at x/c =  1.0000   84

   2   rms: 0.3694E-02   max: -.3458E-01   D at    3  1
       a =  0.750      CL = -0.1634
      Cm = -0.0034     CD =  0.04125   =>   CDf =  0.01135    CDp =  0.02990

 Side 1 forced transition at x/c =  1.0000   78
 Side 2 forced transition at x/c =  1.0000   84

   3   rms: 0.6609E-04   max: 0.7552E-03   C at   84  2
       a =  0.750      CL = -0.1634
      Cm = -0.0034     CD =  0.04125   =>   CDf =  0.01136    CDp =  0.02989
 plradd ia,ip,cpol           16          77  4.15803418E-02

 Point added to stored polar  1
 Save file unspecified or not available
 Dump file unspecified or not available

.OPERva   c>  
.OPERva   c>  
.OPERva   c>   Calculating wake trajectory ...
 Calculating source influence matrix ...

 Solving BL system ...

 Side 1 forced transition at x/c =  1.0000   78
 Side 2 forced transition at x/c =  1.0000   84

   1   rms: 0.9805E-02   max: -.1094E+00   D at    3  2   RLX: 0.590
       a =  0.800      CL = -0.1628
      Cm = -0.0033     CD =  0.04123   =>   CDf =  0.01136    CDp =  0.02987

 Side 1 forced transition at x/c =  1.0000   78
 Side 2 forced transition at x/c =  1.0000   84

   2   rms: 0.4042E-02   max: -.4548E-01   D at    3  2
       a =  0.800      CL = -0.1623
      Cm = -0.0032     CD =  0.04122   =>   CDf =  0.01138    CDp =  0.02985

 Side 1 forced transition at x/c =  1.0000   78
 Side 2 forced transition at x/c =  1.0000   84

   3   rms: 0.7149E-04   max: 0.7683E-03   C at   84  2
       a =  0.800      CL = -0.1623
      Cm = -0.0033     CD =  0.04122   =>   CDf =  0.01138    CDp =  0.02983
 plradd ia,ip,cpol           17          77  4.15803418E-02

 Point added to stored polar  1
 Save file unspecified or not available
 Dump file unspecified or not available

.OPERva   c>  
.OPERva   c>  
.OPERva   c>   Calculating wake trajectory ...
 Calculating source influence matrix ...

 Solving BL system ...

 Side 1 forced transition at x/c =  1.0000   78
 Side 2 forced transition at x/c =  1.0000   84

   1   rms: 0.1016E-01   max: 0.1229E+00   D at    3  2   RLX: 0.586
       a =  0.850      CL = -0.1616
      Cm = -0.0032     CD =  0.04121   =>   CDf =  0.01138    CDp =  0.02983

 Side 1 forced transition at x/c =  1.0000   78
 Side 2 forced transition at x/c =  1.0000   84

   2   rms: 0.4191E-02   max: 0.5161E-01   D at    3  2
       a =  0.850      CL = -0.1610
      Cm = -0.0032     CD =  0.04121   =>   CDf =  0.01140    CDp =  0.02981

 Side 1 forced transition at x/c =  1.0000   78
 Side 2 forced transition at x/c =  1.0000   84

   3   rms: 0.7845E-04   max: 0.9607E-03   C at   84  2
       a =  0.850      CL = -0.1609
      Cm = -0.0032     CD =  0.04120   =>   CDf =  0.01141    CDp =  0.02980
 plradd ia,ip,cpol           18          77  4.15803418E-02

 Point added to stored polar  1
 Save file unspecified or not available
 Dump file unspecified or not available

.OPERva   c>  
.OPERva   c>  
.OPERva   c>   Calculating wake trajectory ...
 Calculating source influence matrix ...

 Solving BL system ...

 Side 1 forced transition at x/c =  1.0000   78
 Side 2 forced transition at x/c =  1.0000   84

   1   rms: 0.8442E-02   max: 0.8129E-01   D at    3  1   RLX: 0.583
       a =  0.900      CL = -0.1601
      Cm = -0.0032     CD =  0.04121   =>   CDf =  0.01141    CDp =  0.02980

 Side 1 forced transition at x/c =  1.0000   78
 Side 2 forced transition at x/c =  1.0000   84

   2   rms: 0.3458E-02   max: 0.3288E-01   D at    3  1
       a =  0.900      CL = -0.1594
      Cm = -0.0031     CD =  0.04121   =>   CDf =  0.01142    CDp =  0.02979

 Side 1 forced transition at x/c =  1.0000   78
 Side 2 forced transition at x/c =  1.0000   84

   3   rms: 0.7363E-04   max: 0.8811E-03   C at   84  2
       a =  0.900      CL = -0.1593
      Cm = -0.0032     CD =  0.04121   =>   CDf =  0.01143    CDp =  0.02978
 plradd ia,ip,cpol           19          77  4.15803418E-02

 Point added to stored polar  1
 Save file unspecified or not available
 Dump file unspecified or not available

.OPERva   c>  
.OPERva   c>  
.OPERva   c>   Calculating wake trajectory ...
 Calculating source influence matrix ...

 Solving BL system ...

 Side 1 forced transition at x/c =  1.0000   78
 Side 2 forced transition at x/c =  1.0000   84

   1   rms: 0.8848E-02   max: -.6305E-01   D at    3  1   RLX: 0.580
       a =  0.950      CL = -0.1583
      Cm = -0.0031     CD =  0.04122   =>   CDf =  0.01143    CDp =  0.02979

 Side 1 forced transition at x/c =  1.0000   78
 Side 2 forced transition at x/c =  1.0000   84

   2   rms: 0.3724E-02   max: -.2649E-01   D at    3  1
       a =  0.950      CL = -0.1575
      Cm = -0.0032     CD =  0.04122   =>   CDf =  0.01145    CDp =  0.02978

 Side 1 forced transition at x/c =  1.0000   78
 Side 2 forced transition at x/c =  1.0000   84

   3   rms: 0.5807E-04   max: 0.7169E-03   C at   84  2
       a =  0.950      CL = -0.1575
      Cm = -0.0032     CD =  0.04122   =>   CDf =  0.01146    CDp =  0.02976
 plradd ia,ip,cpol           20          77  4.15803418E-02

 Point added to stored polar  1
 Save file unspecified or not available
 Dump file unspecified or not available

.OPERva   c>  
.OPERva   c>  
.OPERva   c>   Calculating wake trajectory ...
 Calculating source influence matrix ...

 Solving BL system ...

 Side 1 forced transition at x/c =  1.0000   78
 Side 2 forced transition at x/c =  1.0000   84

   1   rms: 0.7948E-02   max: -.5998E-01   C at   84  2   RLX: 0.578
       a =  1.000      CL = -0.1563
      Cm = -0.0032     CD =  0.04124   =>   CDf =  0.01146    CDp =  0.02978

 Side 1 forced transition at x/c =  1.0000   78
 Side 2 forced transition at x/c =  1.0000   84

   2   rms: 0.3320E-02   max: 0.2463E-01   D at    4  1
       a =  1.000      CL = -0.1553
      Cm = -0.0032     CD =  0.04125   =>   CDf =  0.01147    CDp =  0.02978

 Side 1 forced transition at x/c =  1.0000   78
 Side 2 forced transition at x/c =  1.0000   84

   3   rms: 0.5272E-04   max: 0.6429E-03   C at   84  2
       a =  1.000      CL = -0.1553
      Cm = -0.0032     CD =  0.04125   =>   CDf =  0.01148    CDp =  0.02976
 plradd ia,ip,cpol           21          77  4.15803418E-02

 Point added to stored polar  1
 Save file unspecified or not available
 Dump file unspecified or not available

.OPERva   c>  
.OPERva   c>  
.OPERva   c>   Calculating wake trajectory ...
 Calculating source influence matrix ...

 Solving BL system ...

 Side 1 forced transition at x/c =  1.0000   78
 Side 2 forced transition at x/c =  1.0000   84

   1   rms: 0.9481E-02   max: 0.7946E-01   D at    3  1   RLX: 0.575
       a =  1.050      CL = -0.1540
      Cm = -0.0033     CD =  0.04127   =>   CDf =  0.01148    CDp =  0.02979

 Side 1 forced transition at x/c =  1.0000   78
 Side 2 forced transition at x/c =  1.0000   84

   2   rms: 0.3968E-02   max: 0.3219E-01   D at    3  1
       a =  1.050      CL = -0.1530
      Cm = -0.0033     CD =  0.04129   =>   CDf =  0.01150    CDp =  0.02979

 Side 1 forced transition at x/c =  1.0000   78
 Side 2 forced transition at x/c =  1.0000   84

   3   rms: 0.5309E-04   max: 0.5510E-03   C at   84  2
       a =  1.050      CL = -0.1530
      Cm = -0.0033     CD =  0.04129   =>   CDf =  0.01151    CDp =  0.02978
 plradd ia,ip,cpol           22          77  4.15803418E-02

 Point added to stored polar  1
 Save file unspecified or not available
 Dump file unspecified or not available

.OPERva   c>  
.OPERva   c>  
.OPERva   c>   Calculating wake trajectory ...
 Calculating source influence matrix ...

 Solving BL system ...

 Side 1 forced transition at x/c =  1.0000   78
 Side 2 forced transition at x/c =  1.0000   84

   1   rms: 0.1259E-01   max: -.1426E+00   D at    3  1   RLX: 0.573
       a =  1.100      CL = -0.1516
      Cm = -0.0034     CD =  0.04132   =>   CDf =  0.01151    CDp =  0.02981

 Side 1 forced transition at x/c =  1.0000   78
 Side 2 forced transition at x/c =  1.0000   84

   2   rms: 0.5701E-02   max: -.6226E-01   D at    3  1
       a =  1.100      CL = -0.1504
      Cm = -0.0035     CD =  0.04134   =>   CDf =  0.01152    CDp =  0.02982

 Side 1 forced transition at x/c =  1.0000   78
 Side 2 forced transition at x/c =  1.0000   84

   3   rms: 0.8265E-04   max: 0.7685E-03   D at    5  1
       a =  1.100      CL = -0.1504
      Cm = -0.0035     CD =  0.04134   =>   CDf =  0.01154    CDp =  0.02980
 plradd ia,ip,cpol           23          77  4.15803418E-02

 Point added to stored polar  1
 Save file unspecified or not available
 Dump file unspecified or not available

.OPERva   c>  
.OPERva   c>  
.OPERva   c>   Calculating wake trajectory ...
 Calculating source influence matrix ...

 Solving BL system ...

 Side 1 forced transition at x/c =  1.0000   78
 Side 2 forced transition at x/c =  1.0000   84

   1   rms: 0.1319E-01   max: 0.1795E+00   D at    3  2   RLX: 0.571
       a =  1.150      CL = -0.1489
      Cm = -0.0035     CD =  0.04138   =>   CDf =  0.01154    CDp =  0.02984

 Side 1 forced transition at x/c =  1.0000   78
 Side 2 forced transition at x/c =  1.0000   84

   2   rms: 0.5753E-02   max: 0.8086E-01   D at    3  2
       a =  1.150      CL = -0.1476
      Cm = -0.0036     CD =  0.04141   =>   CDf =  0.01155    CDp =  0.02985

 Side 1 forced transition at x/c =  1.0000   78
 Side 2 forced transition at x/c =  1.0000   84

   3   rms: 0.6359E-04   max: -.6069E-03   D at    3  2
       a =  1.150      CL = -0.1476
      Cm = -0.0036     CD =  0.04140   =>   CDf =  0.01156    CDp =  0.02984
 plradd ia,ip,cpol           24          77  4.15803418E-02

 Point added to stored polar  1
 Save file unspecified or not available
 Dump file unspecified or not available

.OPERva   c>  
.OPERva   c>  
.OPERva   c>   Calculating wake trajectory ...
 Calculating source influence matrix ...

 Solving BL system ...

 Side 1 forced transition at x/c =  1.0000   78
 Side 2 forced transition at x/c =  1.0000   84

   1   rms: 0.1104E-01   max: -.1070E+00   D at    3  2   RLX: 0.569
       a =  1.200      CL = -0.1460
      Cm = -0.0037     CD =  0.04145   =>   CDf =  0.01156    CDp =  0.02989

 Side 1 forced transition at x/c =  1.0000   78
 Side 2 forced transition at x/c =  1.0000   84

   2   rms: 0.4790E-02   max: -.4625E-01   D at    3  2
       a =  1.200      CL = -0.1447
      Cm = -0.0038     CD =  0.04149   =>   CDf =  0.01158    CDp =  0.02991

 Side 1 forced transition at x/c =  1.0000   78
 Side 2 forced transition at x/c =  1.0000   84

   3   rms: 0.6782E-04   max: -.6420E-03   D at    3  2
       a =  1.200      CL = -0.1447
      Cm = -0.0038     CD =  0.04148   =>   CDf =  0.01159    CDp =  0.02989
 plradd ia,ip,cpol           25          77  4.87532131E-02

 Point added to stored polar  1
 Save file unspecified or not available
 Dump file unspecified or not available

.OPERva   c>  
.OPERva   c>  
.OPERva   c>   Calculating wake trajectory ...
 Calculating source influence matrix ...

 Solving BL system ...

 Side 1 forced transition at x/c =  1.0000   78
 Side 2 forced transition at x/c =  1.0000   84

   1   rms: 0.8754E-02   max: -.5578E-01   C at   84  2   RLX: 0.567
       a =  1.250      CL = -0.1430
      Cm = -0.0039     CD =  0.04153   =>   CDf =  0.01159    CDp =  0.02994

 Side 1 forced transition at x/c =  1.0000   78
 Side 2 forced transition at x/c =  1.0000   84

   2   rms: 0.3769E-02   max: -.2328E-01   C at   84  2
       a =  1.250      CL = -0.1416
      Cm = -0.0040     CD =  0.04157   =>   CDf =  0.01161    CDp =  0.02997

 Side 1 forced transition at x/c =  1.0000   78
 Side 2 forced transition at x/c =  1.0000   84

   3   rms: 0.4097E-04   max: 0.3788E-03   C at   84  2
       a =  1.250      CL = -0.1416
      Cm = -0.0040     CD =  0.04157   =>   CDf =  0.01162    CDp =  0.02995
 plradd ia,ip,cpol           26          77  4.87532131E-02

 Point added to stored polar  1
 Save file unspecified or not available
 Dump file unspecified or not available

.OPERva   c>  
.OPERva   c>  
.OPERva   c>   Calculating wake trajectory ...
 Calculating source influence matrix ...

 Solving BL system ...

 Side 1 forced transition at x/c =  1.0000   78
 Side 2 forced transition at x/c =  1.0000   84

   1   rms: 0.1066E-01   max: -.9500E-01   D at    3  1   RLX: 0.565
       a =  1.300      CL = -0.1399
      Cm = -0.0042     CD =  0.04163   =>   CDf =  0.01174    CDp =  0.02989

 Side 1 forced transition at x/c =  1.0000   79
 Side 2 forced transition at x/c =  1.0000   83
 idif Ue xi dudx           1  9.89692733E-02  2.18200684E-03   45.356995    
 Uenew xinew           2  3.56860342E-04  7.86781311E-06

   2   rms: 0.2731E-01   max: -.4896E+00   D at    2  1
       a =  1.300      CL = -0.1384
      Cm = -0.0043     CD =  0.04167   =>   CDf =  0.01156    CDp =  0.03011

 Side 1 forced transition at x/c =  1.0000   78
 Side 2 forced transition at x/c =  1.0000   84

   3   rms: 0.1575E-01   max: 0.2761E+00   D at    2  2
       a =  1.300      CL = -0.1384
      Cm = -0.0043     CD =  0.04167   =>   CDf =  0.01177    CDp =  0.02990

 Side 1 forced transition at x/c =  1.0000   79
 Side 2 forced transition at x/c =  1.0000   83

   4   rms: 0.2172E-01   max: 0.3921E+00   T at    2  1
       a =  1.300      CL = -0.1384
      Cm = -0.0043     CD =  0.04167   =>   CDf =  0.01166    CDp =  0.03001

 Side 1 forced transition at x/c =  1.0000   79
 Side 2 forced transition at x/c =  1.0000   83

   5   rms: 0.4685E-02   max: 0.6259E-01   D at    4  1
       a =  1.300      CL = -0.1384
      Cm = -0.0043     CD =  0.04167   =>   CDf =  0.01166    CDp =  0.03001

 Side 1 forced transition at x/c =  1.0000   79
 Side 2 forced transition at x/c =  1.0000   83

   6   rms: 0.5038E-04   max: 0.7621E-03   D at    6  1
       a =  1.300      CL = -0.1384
      Cm = -0.0043     CD =  0.04167   =>   CDf =  0.01166    CDp =  0.03001
 plradd ia,ip,cpol           27          78  4.87532131E-02

 Point added to stored polar  1
 Save file unspecified or not available
 Dump file unspecified or not available

.OPERva   c>  
.OPERva   c>  
.OPERva   c>   Calculating wake trajectory ...
 Calculating source influence matrix ...

 Solving BL system ...

 Side 1 forced transition at x/c =  1.0000   79
 Side 2 forced transition at x/c =  1.0000   83

   1   rms: 0.1317E-01   max: -.1091E+00   T at    2  2   RLX: 0.563
       a =  1.350      CL = -0.1366
      Cm = -0.0044     CD =  0.04173   =>   CDf =  0.01166    CDp =  0.03008

 Side 1 forced transition at x/c =  1.0000   79
 Side 2 forced transition at x/c =  1.0000   83

   2   rms: 0.5468E-02   max: -.4068E-01   T at    2  2
       a =  1.350      CL = -0.1351
      Cm = -0.0045     CD =  0.04178   =>   CDf =  0.01167    CDp =  0.03010

 Side 1 forced transition at x/c =  1.0000   79
 Side 2 forced transition at x/c =  1.0000   83

   3   rms: 0.7496E-04   max: -.6505E-03   D at    3  1
       a =  1.350      CL = -0.1351
      Cm = -0.0045     CD =  0.04177   =>   CDf =  0.01169    CDp =  0.03009
 plradd ia,ip,cpol           28          78  4.87532131E-02

 Point added to stored polar  1
 Save file unspecified or not available
 Dump file unspecified or not available

.OPERva   c>  
.OPERva   c>  
.OPERva   c>   Calculating wake trajectory ...
 Calculating source influence matrix ...

 Solving BL system ...

 Side 1 forced transition at x/c =  1.0000   79
 Side 2 forced transition at x/c =  1.0000   83

   1   rms: 0.7829E-02   max: -.5243E-01   C at   83  2   RLX: 0.561
       a =  1.400      CL = -0.1331
      Cm = -0.0047     CD =  0.04184   =>   CDf =  0.01169    CDp =  0.03016

 Side 1 forced transition at x/c =  1.0000   79
 Side 2 forced transition at x/c =  1.0000   83

   2   rms: 0.3434E-02   max: -.2242E-01   C at   83  2
       a =  1.400      CL = -0.1316
      Cm = -0.0048     CD =  0.04190   =>   CDf =  0.01170    CDp =  0.03019

 Side 1 forced transition at x/c =  1.0000   79
 Side 2 forced transition at x/c =  1.0000   83

   3   rms: 0.3525E-04   max: 0.2836E-03   C at   83  2
       a =  1.400      CL = -0.1316
      Cm = -0.0048     CD =  0.04189   =>   CDf =  0.01172    CDp =  0.03017
 plradd ia,ip,cpol           29          78  4.87532131E-02

 Point added to stored polar  1
 Save file unspecified or not available
 Dump file unspecified or not available

.OPERva   c>  
.OPERva   c>  
.OPERva   c>   Calculating wake trajectory ...
 Calculating source influence matrix ...

 Solving BL system ...

 Side 1 forced transition at x/c =  1.0000   79
 Side 2 forced transition at x/c =  1.0000   83

   1   rms: 0.1133E-01   max: -.1025E+00   D at    3  1   RLX: 0.560
       a =  1.450      CL = -0.1296
      Cm = -0.0050     CD =  0.04196   =>   CDf =  0.01171    CDp =  0.03025

 Side 1 forced transition at x/c =  1.0000   79
 Side 2 forced transition at x/c =  1.0000   83

   2   rms: 0.5103E-02   max: -.4487E-01   D at    3  1
       a =  1.450      CL = -0.1280
      Cm = -0.0051     CD =  0.04202   =>   CDf =  0.01173    CDp =  0.03029

 Side 1 forced transition at x/c =  1.0000   79
 Side 2 forced transition at x/c =  1.0000   83

   3   rms: 0.5824E-04   max: -.5818E-03   D at    4  1
       a =  1.450      CL = -0.1280
      Cm = -0.0051     CD =  0.04201   =>   CDf =  0.01174    CDp =  0.03027
 plradd ia,ip,cpol           30          78  4.87532131E-02

 Point added to stored polar  1
 Save file unspecified or not available
 Dump file unspecified or not available

.OPERva   c>  
.OPERva   c>  
.OPERva   c>   Calculating wake trajectory ...
 Calculating source influence matrix ...

 Solving BL system ...

 Side 1 forced transition at x/c =  1.0000   79
 Side 2 forced transition at x/c =  1.0000   83

   1   rms: 0.7762E-02   max: -.5046E-01   C at   83  2   RLX: 0.558
       a =  1.500      CL = -0.1260
      Cm = -0.0053     CD =  0.04210   =>   CDf =  0.01174    CDp =  0.03035

 Side 1 forced transition at x/c =  1.0000   79
 Side 2 forced transition at x/c =  1.0000   83

   2   rms: 0.3395E-02   max: -.2166E-01   C at   83  2
       a =  1.500      CL = -0.1244
      Cm = -0.0054     CD =  0.04216   =>   CDf =  0.01176    CDp =  0.03039

 Side 1 forced transition at x/c =  1.0000   79
 Side 2 forced transition at x/c =  1.0000   83

   3   rms: 0.3577E-04   max: 0.2728E-03   C at   83  2
       a =  1.500      CL = -0.1244
      Cm = -0.0054     CD =  0.04215   =>   CDf =  0.01177    CDp =  0.03037
 plradd ia,ip,cpol           31          78  4.87532131E-02

 Point added to stored polar  1
 Save file unspecified or not available
 Dump file unspecified or not available

.OPERva   c>  
.OPERva   c>  
.OPERva   c>   Calculating wake trajectory ...
 Calculating source influence matrix ...

 Solving BL system ...

 Side 1 forced transition at x/c =  1.0000   79
 Side 2 forced transition at x/c =  1.0000   83

   1   rms: 0.1096E-01   max: -.1247E+00   D at    3  1   RLX: 0.557
       a =  1.550      CL = -0.1223
      Cm = -0.0056     CD =  0.04223   =>   CDf =  0.01177    CDp =  0.03046

 Side 1 forced transition at x/c =  1.0000   79
 Side 2 forced transition at x/c =  1.0000   83

   2   rms: 0.4961E-02   max: -.5503E-01   D at    3  1
       a =  1.550      CL = -0.1206
      Cm = -0.0057     CD =  0.04229   =>   CDf =  0.01179    CDp =  0.03050

 Side 1 forced transition at x/c =  1.0000   79
 Side 2 forced transition at x/c =  1.0000   83

   3   rms: 0.4764E-04   max: -.4162E-03   D at    4  1
       a =  1.550      CL = -0.1206
      Cm = -0.0057     CD =  0.04229   =>   CDf =  0.01180    CDp =  0.03048
 plradd ia,ip,cpol           32          78  4.87532131E-02

 Point added to stored polar  1
 Save file unspecified or not available
 Dump file unspecified or not available

.OPERva   c>  
.OPERva   c>  
.OPERva   c>   Calculating wake trajectory ...
 Calculating source influence matrix ...

 Solving BL system ...

 Side 1 forced transition at x/c =  1.0000   79
 Side 2 forced transition at x/c =  1.0000   83

   1   rms: 0.9277E-02   max: 0.7233E-01   T at    3  1   RLX: 0.555
       a =  1.600      CL = -0.1185
      Cm = -0.0059     CD =  0.04238   =>   CDf =  0.01180    CDp =  0.03058

 Side 1 forced transition at x/c =  1.0000   79
 Side 2 forced transition at x/c =  1.0000   83

   2   rms: 0.4127E-02   max: 0.3172E-01   D at    3  1
       a =  1.600      CL = -0.1168
      Cm = -0.0061     CD =  0.04244   =>   CDf =  0.01182    CDp =  0.03063

 Side 1 forced transition at x/c =  1.0000   79
 Side 2 forced transition at x/c =  1.0000   83

   3   rms: 0.4908E-04   max: 0.4242E-03   D at    6  1
       a =  1.600      CL = -0.1168
      Cm = -0.0061     CD =  0.04244   =>   CDf =  0.01183    CDp =  0.03061
 plradd ia,ip,cpol           33          78  4.87532131E-02

 Point added to stored polar  1
 Save file unspecified or not available
 Dump file unspecified or not available

.OPERva   c>  
.OPERva   c>  
.OPERva   c>   Calculating wake trajectory ...
 Calculating source influence matrix ...

 Solving BL system ...

 Side 1 forced transition at x/c =  1.0000   79
 Side 2 forced transition at x/c =  1.0000   83

   1   rms: 0.8875E-02   max: -.4862E-01   C at   83  2   RLX: 0.554
       a =  1.650      CL = -0.1146
      Cm = -0.0063     CD =  0.04253   =>   CDf =  0.01183    CDp =  0.03070

 Side 1 forced transition at x/c =  1.0000   79
 Side 2 forced transition at x/c =  1.0000   83

   2   rms: 0.3905E-02   max: -.2110E-01   C at   83  2
       a =  1.650      CL = -0.1129
      Cm = -0.0064     CD =  0.04260   =>   CDf =  0.01185    CDp =  0.03075

 Side 1 forced transition at x/c =  1.0000   79
 Side 2 forced transition at x/c =  1.0000   83

   3   rms: 0.3964E-04   max: 0.2291E-03   C at   83  2
       a =  1.650      CL = -0.1129
      Cm = -0.0064     CD =  0.04259   =>   CDf =  0.01186    CDp =  0.03073
 plradd ia,ip,cpol           34          78  4.87532131E-02

 Point added to stored polar  1
 Save file unspecified or not available
 Dump file unspecified or not available

.OPERva   c>  
.OPERva   c>  
.OPERva   c>   Calculating wake trajectory ...
 Calculating source influence matrix ...

 Solving BL system ...

 Side 1 forced transition at x/c =  1.0000   79
 Side 2 forced transition at x/c =  1.0000   83

   1   rms: 0.8277E-02   max: -.4792E-01   C at   83  2   RLX: 0.553
       a =  1.700      CL = -0.1107
      Cm = -0.0066     CD =  0.04269   =>   CDf =  0.01186    CDp =  0.03083

 Side 1 forced transition at x/c =  1.0000   79
 Side 2 forced transition at x/c =  1.0000   83

   2   rms: 0.3736E-02   max: -.2102E-01   C at   83  2
       a =  1.700      CL = -0.1089
      Cm = -0.0068     CD =  0.04276   =>   CDf =  0.01188    CDp =  0.03089

 Side 1 forced transition at x/c =  1.0000   79
 Side 2 forced transition at x/c =  1.0000   83

   3   rms: 0.4228E-04   max: -.2673E-03   D at    3  2
       a =  1.700      CL = -0.1089
      Cm = -0.0068     CD =  0.04275   =>   CDf =  0.01189    CDp =  0.03087
 plradd ia,ip,cpol           35          78  4.87532131E-02

 Point added to stored polar  1
 Save file unspecified or not available
 Dump file unspecified or not available

.OPERva   c>  
.OPERva   c>  
.OPERva   c>   Calculating wake trajectory ...
 Calculating source influence matrix ...

 Solving BL system ...

 Side 1 forced transition at x/c =  1.0000   79
 Side 2 forced transition at x/c =  1.0000   83

   1   rms: 0.1118E-01   max: 0.1030E+00   D at    3  2   RLX: 0.551
       a =  1.750      CL = -0.1067
      Cm = -0.0070     CD =  0.04285   =>   CDf =  0.01189    CDp =  0.03097

 Side 1 forced transition at x/c =  1.0000   79
 Side 2 forced transition at x/c =  1.0000   83

   2   rms: 0.4927E-02   max: 0.4663E-01   D at    3  2
       a =  1.750      CL = -0.1049
      Cm = -0.0071     CD =  0.04293   =>   CDf =  0.01191    CDp =  0.03102

 Side 1 forced transition at x/c =  1.0000   79
 Side 2 forced transition at x/c =  1.0000   83

   3   rms: 0.3628E-04   max: 0.2078E-03   D at    5  2
       a =  1.750      CL = -0.1049
      Cm = -0.0071     CD =  0.04292   =>   CDf =  0.01192    CDp =  0.03100
 plradd ia,ip,cpol           36          78  4.87532131E-02

 Point added to stored polar  1
 Save file unspecified or not available
 Dump file unspecified or not available

.OPERva   c>  
.OPERva   c>  
.OPERva   c>   Calculating wake trajectory ...
 Calculating source influence matrix ...

 Solving BL system ...

 Side 1 forced transition at x/c =  1.0000   79
 Side 2 forced transition at x/c =  1.0000   83

   1   rms: 0.8187E-02   max: -.4621E-01   C at   83  2   RLX: 0.550
       a =  1.800      CL = -0.1027
      Cm = -0.0073     CD =  0.04303   =>   CDf =  0.01192    CDp =  0.03111

 Side 1 forced transition at x/c =  1.0000   79
 Side 2 forced transition at x/c =  1.0000   83

   2   rms: 0.3683E-02   max: -.2048E-01   D at    5  2
       a =  1.800      CL = -0.1009
      Cm = -0.0075     CD =  0.04310   =>   CDf =  0.01193    CDp =  0.03117

 Side 1 forced transition at x/c =  1.0000   79
 Side 2 forced transition at x/c =  1.0000   83

   3   rms: 0.3191E-04   max: -.1723E-03   D at    5  2
       a =  1.800      CL = -0.1009
      Cm = -0.0075     CD =  0.04310   =>   CDf =  0.01195    CDp =  0.03115
 plradd ia,ip,cpol           37          78  4.87532131E-02

 Point added to stored polar  1
 Save file unspecified or not available
 Dump file unspecified or not available

.OPERva   c>  
.OPERva   c>  
.OPERva   c>   Calculating wake trajectory ...
 Calculating source influence matrix ...

 Solving BL system ...

 Side 1 forced transition at x/c =  1.0000   79
 Side 2 forced transition at x/c =  1.0000   83

   1   rms: 0.9076E-02   max: 0.7735E-01   D at    3  1   RLX: 0.549
       a =  1.850      CL = -0.0987
      Cm = -0.0077     CD =  0.04321   =>   CDf =  0.01195    CDp =  0.03126

 Side 1 forced transition at x/c =  1.0000   79
 Side 2 forced transition at x/c =  1.0000   83

   2   rms: 0.3984E-02   max: 0.3243E-01   D at    3  1
       a =  1.850      CL = -0.0968
      Cm = -0.0079     CD =  0.04329   =>   CDf =  0.01196    CDp =  0.03132

 Side 1 forced transition at x/c =  1.0000   79
 Side 2 forced transition at x/c =  1.0000   83

   3   rms: 0.3803E-04   max: -.3775E-03   D at    3  1
       a =  1.850      CL = -0.0968
      Cm = -0.0079     CD =  0.04328   =>   CDf =  0.01197    CDp =  0.03130
 plradd ia,ip,cpol           38          78  4.87532131E-02

 Point added to stored polar  1
 Save file unspecified or not available
 Dump file unspecified or not available

.OPERva   c>  
.OPERva   c>  
.OPERva   c>   Calculating wake trajectory ...
 Calculating source influence matrix ...

 Solving BL system ...

 Side 1 forced transition at x/c =  1.0000   79
 Side 2 forced transition at x/c =  1.0000   83

   1   rms: 0.7891E-02   max: 0.5542E-01   D at    5  1   RLX: 0.548
       a =  1.900      CL = -0.0946
      Cm = -0.0081     CD =  0.04339   =>   CDf =  0.01197    CDp =  0.03142

 Side 1 forced transition at x/c =  1.0000   79
 Side 2 forced transition at x/c =  1.0000   83

   2   rms: 0.3558E-02   max: 0.2452E-01   D at    5  1
       a =  1.900      CL = -0.0927
      Cm = -0.0082     CD =  0.04347   =>   CDf =  0.01199    CDp =  0.03148

 Side 1 forced transition at x/c =  1.0000   79
 Side 2 forced transition at x/c =  1.0000   83

   3   rms: 0.3705E-04   max: -.2711E-03   D at    3  2
       a =  1.900      CL = -0.0927
      Cm = -0.0082     CD =  0.04346   =>   CDf =  0.01200    CDp =  0.03146
 plradd ia,ip,cpol           39          78  4.87532131E-02

 Point added to stored polar  1
 Save file unspecified or not available
 Dump file unspecified or not available

.OPERva   c>  
.OPERva   c>  
.OPERva   c>   Calculating wake trajectory ...
 Calculating source influence matrix ...

 Solving BL system ...

 Side 1 forced transition at x/c =  1.0000   79
 Side 2 forced transition at x/c =  1.0000   83

   1   rms: 0.9909E-02   max: -.8727E-01   D at    4  2   RLX: 0.547
       a =  1.950      CL = -0.0904
      Cm = -0.0084     CD =  0.04358   =>   CDf =  0.01200    CDp =  0.03157

 Side 1 forced transition at x/c =  1.0000   79
 Side 2 forced transition at x/c =  1.0000   83

   2   rms: 0.4570E-02   max: -.4162E-01   D at    4  2
       a =  1.950      CL = -0.0885
      Cm = -0.0086     CD =  0.04366   =>   CDf =  0.01202    CDp =  0.03164

 Side 1 forced transition at x/c =  1.0000   79
 Side 2 forced transition at x/c =  1.0000   83

   3   rms: 0.3922E-04   max: -.3948E-03   D at    4  2
       a =  1.950      CL = -0.0885
      Cm = -0.0086     CD =  0.04365   =>   CDf =  0.01203    CDp =  0.03162
 plradd ia,ip,cpol           40          78  4.87532131E-02

 Point added to stored polar  1
 Save file unspecified or not available
 Dump file unspecified or not available

.OPERva   c>  
.OPERva   c>  
.OPERva   c>   Calculating wake trajectory ...
 Calculating source influence matrix ...

 Solving BL system ...

 Side 1 forced transition at x/c =  1.0000   79
 Side 2 forced transition at x/c =  1.0000   83

   1   rms: 0.9482E-02   max: 0.8387E-01   D at    4  2   RLX: 0.545
       a =  2.000      CL = -0.0863
      Cm = -0.0088     CD =  0.04377   =>   CDf =  0.01203    CDp =  0.03174

 Side 1 forced transition at x/c =  1.0000   79
 Side 2 forced transition at x/c =  1.0000   83

   2   rms: 0.4294E-02   max: 0.3870E-01   D at    4  2
       a =  2.000      CL = -0.0843
      Cm = -0.0090     CD =  0.04386   =>   CDf =  0.01205    CDp =  0.03181

 Side 1 forced transition at x/c =  1.0000   79
 Side 2 forced transition at x/c =  1.0000   83

   3   rms: 0.3788E-04   max: -.2779E-03   D at    7  2
       a =  2.000      CL = -0.0843
      Cm = -0.0090     CD =  0.04385   =>   CDf =  0.01206    CDp =  0.03179
 plradd ia,ip,cpol           41          78  4.87532131E-02

 Point added to stored polar  1
 Save file unspecified or not available
 Dump file unspecified or not available

.OPERva   c>  
.OPERva   c>  
.OPERva   c>   Calculating wake trajectory ...
 Calculating source influence matrix ...

 Solving BL system ...

 Side 1 forced transition at x/c =  1.0000   79
 Side 2 forced transition at x/c =  1.0000   83

   1   rms: 0.1156E-01   max: 0.8981E-01   T at    2  2   RLX: 0.544
       a =  2.050      CL = -0.0821
      Cm = -0.0092     CD =  0.04397   =>   CDf =  0.01211    CDp =  0.03186

 Side 1 forced transition at x/c =  1.0000   80
 Side 2 forced transition at x/c =  1.0000   82

   2   rms: 0.9494E-01   max: -.1739E+01   T at    2  1   RLX: 0.287
       a =  2.050      CL = -0.0816
      Cm = -0.0093     CD =  0.04399   =>   CDf =  0.01208    CDp =  0.03191

 Side 1 forced transition at x/c =  1.0000   80
 Side 2 forced transition at x/c =  1.0000   82

   3   rms: 0.5772E-01   max: -.1032E+01   T at    2  1   RLX: 0.485
       a =  2.050      CL = -0.0809
      Cm = -0.0093     CD =  0.04402   =>   CDf =  0.01208    CDp =  0.03194

 Side 1 forced transition at x/c =  1.0000   80
 Side 2 forced transition at x/c =  1.0000   82

   4   rms: 0.8803E-02   max: 0.1242E+00   D at    3  1
       a =  2.050      CL = -0.0802
      Cm = -0.0094     CD =  0.04405   =>   CDf =  0.01209    CDp =  0.03197

 Side 1 forced transition at x/c =  1.0000   80
 Side 2 forced transition at x/c =  1.0000   82

   5   rms: 0.2913E-03   max: -.4572E-02   D at    4  1
       a =  2.050      CL = -0.0802
      Cm = -0.0094     CD =  0.04405   =>   CDf =  0.01209    CDp =  0.03196

 Side 1 forced transition at x/c =  1.0000   80
 Side 2 forced transition at x/c =  1.0000   82

   6   rms: 0.2183E-05   max: -.2683E-04   D at    3  1
       a =  2.050      CL = -0.0802
      Cm = -0.0094     CD =  0.04405   =>   CDf =  0.01209    CDp =  0.03196
 plradd ia,ip,cpol           42          79  5.70996962E-02

 Point added to stored polar  1
 Save file unspecified or not available
 Dump file unspecified or not available

.OPERva   c>  
.OPERva   c>  
.OPERva   c>   Calculating wake trajectory ...
 Calculating source influence matrix ...

 Solving BL system ...

 Side 1 forced transition at x/c =  1.0000   80
 Side 2 forced transition at x/c =  1.0000   82

   1   rms: 0.1178E-01   max: -.1027E+00   D at    3  2   RLX: 0.543
       a =  2.100      CL = -0.0779
      Cm = -0.0096     CD =  0.04417   =>   CDf =  0.01209    CDp =  0.03208

 Side 1 forced transition at x/c =  1.0000   80
 Side 2 forced transition at x/c =  1.0000   82

   2   rms: 0.5527E-02   max: -.4954E-01   D at    3  2
       a =  2.100      CL = -0.0760
      Cm = -0.0098     CD =  0.04427   =>   CDf =  0.01211    CDp =  0.03216

 Side 1 forced transition at x/c =  1.0000   80
 Side 2 forced transition at x/c =  1.0000   82

   3   rms: 0.5129E-04   max: -.3960E-03   D at    3  2
       a =  2.100      CL = -0.0760
      Cm = -0.0098     CD =  0.04426   =>   CDf =  0.01212    CDp =  0.03213
 plradd ia,ip,cpol           43          79  4.87532131E-02

 Point added to stored polar  1
 Save file unspecified or not available
 Dump file unspecified or not available

.OPERva   c>  
.OPERva   c>  
.OPERva   c>   Calculating wake trajectory ...
 Calculating source influence matrix ...

 Solving BL system ...

 Side 1 forced transition at x/c =  1.0000   80
 Side 2 forced transition at x/c =  1.0000   82

   1   rms: 0.1312E-01   max: -.8988E-01   T at    2  2   RLX: 0.542
       a =  2.150      CL = -0.0737
      Cm = -0.0100     CD =  0.04438   =>   CDf =  0.01212    CDp =  0.03226

 Side 1 forced transition at x/c =  1.0000   80
 Side 2 forced transition at x/c =  1.0000   82

   2   rms: 0.5722E-02   max: 0.4285E-01   T at    4  1
       a =  2.150      CL = -0.0718
      Cm = -0.0102     CD =  0.04448   =>   CDf =  0.01213    CDp =  0.03234

 Side 1 forced transition at x/c =  1.0000   80
 Side 2 forced transition at x/c =  1.0000   82

   3   rms: 0.8219E-04   max: 0.8320E-03   D at    5  1
       a =  2.150      CL = -0.0718
      Cm = -0.0101     CD =  0.04447   =>   CDf =  0.01215    CDp =  0.03232
 plradd ia,ip,cpol           44          79  4.87532131E-02

 Point added to stored polar  1
 Save file unspecified or not available
 Dump file unspecified or not available

.OPERva   c>  
.OPERva   c>  
.OPERva   c>   Calculating wake trajectory ...
 Calculating source influence matrix ...

 Solving BL system ...

 Side 1 forced transition at x/c =  1.0000   80
 Side 2 forced transition at x/c =  1.0000   82

   1   rms: 0.1029E-01   max: -.9647E-01   D at    3  1   RLX: 0.541
       a =  2.200      CL = -0.0695
      Cm = -0.0104     CD =  0.04459   =>   CDf =  0.01215    CDp =  0.03245

 Side 1 forced transition at x/c =  1.0000   80
 Side 2 forced transition at x/c =  1.0000   82

   2   rms: 0.4761E-02   max: -.4438E-01   D at    3  1
       a =  2.200      CL = -0.0676
      Cm = -0.0105     CD =  0.04469   =>   CDf =  0.01216    CDp =  0.03253

 Side 1 forced transition at x/c =  1.0000   80
 Side 2 forced transition at x/c =  1.0000   82

   3   rms: 0.3732E-04   max: -.2794E-03   D at    6  1
       a =  2.200      CL = -0.0676
      Cm = -0.0105     CD =  0.04468   =>   CDf =  0.01217    CDp =  0.03251
 plradd ia,ip,cpol           45          79  4.87532131E-02

 Point added to stored polar  1
 Save file unspecified or not available
 Dump file unspecified or not available

.OPERva   c>  
.OPERva   c>  
.OPERva   c>   Calculating wake trajectory ...
 Calculating source influence matrix ...

 Solving BL system ...

 Side 1 forced transition at x/c =  1.0000   80
 Side 2 forced transition at x/c =  1.0000   82

   1   rms: 0.8038E-02   max: -.3865E-01   C at   82  2   RLX: 0.540
       a =  2.250      CL = -0.0653
      Cm = -0.0107     CD =  0.04481   =>   CDf =  0.01217    CDp =  0.03264

 Side 1 forced transition at x/c =  1.0000   80
 Side 2 forced transition at x/c =  1.0000   82

   2   rms: 0.3698E-02   max: -.1742E-01   C at   82  2
       a =  2.250      CL = -0.0634
      Cm = -0.0109     CD =  0.04491   =>   CDf =  0.01219    CDp =  0.03272

 Side 1 forced transition at x/c =  1.0000   80
 Side 2 forced transition at x/c =  1.0000   82

   3   rms: 0.2860E-04   max: 0.1348E-03   D at   75  2
       a =  2.250      CL = -0.0634
      Cm = -0.0109     CD =  0.04490   =>   CDf =  0.01220    CDp =  0.03270
 plradd ia,ip,cpol           46          79  4.87532131E-02

 Point added to stored polar  1
 Save file unspecified or not available
 Dump file unspecified or not available

.OPERva   c>  
.OPERva   c>  
.OPERva   c>   Calculating wake trajectory ...
 Calculating source influence matrix ...

 Solving BL system ...

 Side 1 forced transition at x/c =  1.0000   80
 Side 2 forced transition at x/c =  1.0000   82

   1   rms: 0.1331E-01   max: -.1815E+00   D at    3  2   RLX: 0.539
       a =  2.300      CL = -0.0611
      Cm = -0.0111     CD =  0.04503   =>   CDf =  0.01220    CDp =  0.03283

 Side 1 forced transition at x/c =  1.0000   80
 Side 2 forced transition at x/c =  1.0000   82

   2   rms: 0.6441E-02   max: -.8740E-01   D at    3  2
       a =  2.300      CL = -0.0591
      Cm = -0.0113     CD =  0.04513   =>   CDf =  0.01221    CDp =  0.03292

 Side 1 forced transition at x/c =  1.0000   80
 Side 2 forced transition at x/c =  1.0000   82

   3   rms: 0.1030E-03   max: -.1572E-02   D at    3  2
       a =  2.300      CL = -0.0591
      Cm = -0.0113     CD =  0.04512   =>   CDf =  0.01223    CDp =  0.03289

 Side 1 forced transition at x/c =  1.0000   80
 Side 2 forced transition at x/c =  1.0000   82

   4   rms: 0.5402E-06   max: 0.3252E-05   D at   97  2
       a =  2.300      CL = -0.0591
      Cm = -0.0113     CD =  0.04512   =>   CDf =  0.01223    CDp =  0.03289
 plradd ia,ip,cpol           47          79  5.70996962E-02

 Point added to stored polar  1
 Save file unspecified or not available
 Dump file unspecified or not available

.OPERva   c>  
.OPERva   c>  
.OPERva   c>   Calculating wake trajectory ...
 Calculating source influence matrix ...

 Solving BL system ...

 Side 1 forced transition at x/c =  1.0000   80
 Side 2 forced transition at x/c =  1.0000   82

   1   rms: 0.8147E-02   max: -.3716E-01   C at   82  2   RLX: 0.538
       a =  2.350      CL = -0.0569
      Cm = -0.0115     CD =  0.04525   =>   CDf =  0.01223    CDp =  0.03303

 Side 1 forced transition at x/c =  1.0000   80
 Side 2 forced transition at x/c =  1.0000   82

   2   rms: 0.3773E-02   max: -.1687E-01   C at   82  2
       a =  2.350      CL = -0.0549
      Cm = -0.0117     CD =  0.04536   =>   CDf =  0.01224    CDp =  0.03312

 Side 1 forced transition at x/c =  1.0000   80
 Side 2 forced transition at x/c =  1.0000   82

   3   rms: 0.2560E-04   max: -.1399E-03   D at    5  2
       a =  2.350      CL = -0.0549
      Cm = -0.0117     CD =  0.04534   =>   CDf =  0.01225    CDp =  0.03309
 plradd ia,ip,cpol           48          79  5.70996962E-02

 Point added to stored polar  1
 Save file unspecified or not available
 Dump file unspecified or not available

.OPERva   c>  
.OPERva   c>  
.OPERva   c>   Calculating wake trajectory ...
 Calculating source influence matrix ...

 Solving BL system ...

 Side 1 forced transition at x/c =  1.0000   80
 Side 2 forced transition at x/c =  1.0000   82

   1   rms: 0.1248E-01   max: 0.1203E+00   D at    3  2   RLX: 0.537
       a =  2.400      CL = -0.0526
      Cm = -0.0119     CD =  0.04548   =>   CDf =  0.01225    CDp =  0.03323

 Side 1 forced transition at x/c =  1.0000   80
 Side 2 forced transition at x/c =  1.0000   82

   2   rms: 0.5634E-02   max: 0.5591E-01   D at    3  2
       a =  2.400      CL = -0.0506
      Cm = -0.0121     CD =  0.04558   =>   CDf =  0.01227    CDp =  0.03332

 Side 1 forced transition at x/c =  1.0000   80
 Side 2 forced transition at x/c =  1.0000   82

   3   rms: 0.4980E-04   max: -.5129E-03   D at    4  1
       a =  2.400      CL = -0.0507
      Cm = -0.0120     CD =  0.04557   =>   CDf =  0.01228    CDp =  0.03329
 plradd ia,ip,cpol           49          79  5.70996962E-02

 Point added to stored polar  1
 Save file unspecified or not available
 Dump file unspecified or not available

.OPERva   c>  
.OPERva   c>  
.OPERva   c>   Calculating wake trajectory ...
 Calculating source influence matrix ...

 Solving BL system ...

 Side 1 forced transition at x/c =  1.0000   80
 Side 2 forced transition at x/c =  1.0000   82

   1   rms: 0.9572E-02   max: -.9669E-01   D at    4  1   RLX: 0.535
       a =  2.450      CL = -0.0484
      Cm = -0.0123     CD =  0.04571   =>   CDf =  0.01228    CDp =  0.03343

 Side 1 forced transition at x/c =  1.0000   80
 Side 2 forced transition at x/c =  1.0000   82

   2   rms: 0.4444E-02   max: -.4396E-01   D at    4  1
       a =  2.450      CL = -0.0465
      Cm = -0.0124     CD =  0.04582   =>   CDf =  0.01229    CDp =  0.03353

 Side 1 forced transition at x/c =  1.0000   80
 Side 2 forced transition at x/c =  1.0000   82

   3   rms: 0.3146E-04   max: -.2622E-03   D at    8  1
       a =  2.450      CL = -0.0465
      Cm = -0.0124     CD =  0.04581   =>   CDf =  0.01230    CDp =  0.03350
 plradd ia,ip,cpol           50          79  5.70996962E-02

 Point added to stored polar  1
 Save file unspecified or not available
 Dump file unspecified or not available

.OPERva   c>  
.OPERva   c>  
.OPERva   c>   Calculating wake trajectory ...
 Calculating source influence matrix ...

 Solving BL system ...

 Side 1 forced transition at x/c =  1.0000   80
 Side 2 forced transition at x/c =  1.0000   82

   1   rms: 0.8494E-02   max: -.5173E-01   D at    3  2   RLX: 0.534
       a =  2.500      CL = -0.0442
      Cm = -0.0126     CD =  0.04595   =>   CDf =  0.01230    CDp =  0.03364

 Side 1 forced transition at x/c =  1.0000   80
 Side 2 forced transition at x/c =  1.0000   82

   2   rms: 0.4032E-02   max: -.2665E-01   D at    3  2
       a =  2.500      CL = -0.0422
      Cm = -0.0128     CD =  0.04606   =>   CDf =  0.01232    CDp =  0.03374

 Side 1 forced transition at x/c =  1.0000   80
 Side 2 forced transition at x/c =  1.0000   82

   3   rms: 0.4032E-04   max: -.3776E-03   D at    3  2
       a =  2.500      CL = -0.0423
      Cm = -0.0128     CD =  0.04605   =>   CDf =  0.01233    CDp =  0.03372
 plradd ia,ip,cpol           51          79  5.70996962E-02

 Point added to stored polar  1
 Save file unspecified or not available
 Dump file unspecified or not available

.OPERva   c>  
.OPERva   c>  
.OPERva   c>   Calculating wake trajectory ...
 Calculating source influence matrix ...

 Solving BL system ...

 Side 1 forced transition at x/c =  1.0000   80
 Side 2 forced transition at x/c =  1.0000   82

   1   rms: 0.1215E-01   max: 0.1367E+00   D at    4  2   RLX: 0.533
       a =  2.550      CL = -0.0400
      Cm = -0.0130     CD =  0.04619   =>   CDf =  0.01233    CDp =  0.03386

 Side 1 forced transition at x/c =  1.0000   80
 Side 2 forced transition at x/c =  1.0000   82

   2   rms: 0.5645E-02   max: 0.6491E-01   D at    4  2
       a =  2.550      CL = -0.0381
      Cm = -0.0132     CD =  0.04630   =>   CDf =  0.01234    CDp =  0.03396

 Side 1 forced transition at x/c =  1.0000   80
 Side 2 forced transition at x/c =  1.0000   82

   3   rms: 0.6079E-04   max: 0.7172E-03   D at    6  2
       a =  2.550      CL = -0.0381
      Cm = -0.0132     CD =  0.04629   =>   CDf =  0.01235    CDp =  0.03393
 plradd ia,ip,cpol           52          79  5.70996962E-02

 Point added to stored polar  1
 Save file unspecified or not available
 Dump file unspecified or not available

.OPERva   c>  
.OPERva   c>  
.OPERva   c>   Calculating wake trajectory ...
 Calculating source influence matrix ...

 Solving BL system ...

 Side 1 forced transition at x/c =  1.0000   80
 Side 2 forced transition at x/c =  1.0000   82

   1   rms: 0.9511E-02   max: -.3658E-01   D at    7  2   RLX: 0.532
       a =  2.600      CL = -0.0358
      Cm = -0.0134     CD =  0.04643   =>   CDf =  0.01235    CDp =  0.03407

 Side 1 forced transition at x/c =  1.0000   80
 Side 2 forced transition at x/c =  1.0000   82

   2   rms: 0.4521E-02   max: -.3560E-01   D at    4  2
       a =  2.600      CL = -0.0339
      Cm = -0.0135     CD =  0.04654   =>   CDf =  0.01237    CDp =  0.03417

 Side 1 forced transition at x/c =  1.0000   80
 Side 2 forced transition at x/c =  1.0000   82

   3   rms: 0.3941E-04   max: -.3472E-03   D at    7  2
       a =  2.600      CL = -0.0339
      Cm = -0.0135     CD =  0.04653   =>   CDf =  0.01238    CDp =  0.03415
 plradd ia,ip,cpol           53          79  0.19712920    

 Point added to stored polar  1
 Save file unspecified or not available
 Dump file unspecified or not available

.OPERva   c>  
.OPERva   c>  
.OPERva   c>   Calculating wake trajectory ...
 Calculating source influence matrix ...

 Solving BL system ...

 Side 1 forced transition at x/c =  1.0000   80
 Side 2 forced transition at x/c =  1.0000   82

   1   rms: 0.1059E-01   max: -.1052E+00   D at    3  2   RLX: 0.531
       a =  2.650      CL = -0.0317
      Cm = -0.0137     CD =  0.04667   =>   CDf =  0.01238    CDp =  0.03429

 Side 1 forced transition at x/c =  1.0000   80
 Side 2 forced transition at x/c =  1.0000   82

   2   rms: 0.5252E-02   max: -.5468E-01   D at    3  2
       a =  2.650      CL = -0.0297
      Cm = -0.0139     CD =  0.04678   =>   CDf =  0.01239    CDp =  0.03439

 Side 1 forced transition at x/c =  1.0000   80
 Side 2 forced transition at x/c =  1.0000   82

   3   rms: 0.8975E-04   max: -.1275E-02   T at    3  2
       a =  2.650      CL = -0.0297
      Cm = -0.0139     CD =  0.04677   =>   CDf =  0.01240    CDp =  0.03437
 plradd ia,ip,cpol           54          79  0.19712920    

 Point added to stored polar  1
 Save file unspecified or not available
 Dump file unspecified or not available

.OPERva   c>  
.OPERva   c>  
.OPERva   c>   Calculating wake trajectory ...
 Calculating source influence matrix ...

 Solving BL system ...

 Side 1 forced transition at x/c =  1.0000   80
 Side 2 forced transition at x/c =  1.0000   82

   1   rms: 0.1232E-01   max: 0.1229E+00   D at    3  2   RLX: 0.530
       a =  2.700      CL = -0.0275
      Cm = -0.0141     CD =  0.04692   =>   CDf =  0.01240    CDp =  0.03452

 Side 1 forced transition at x/c =  1.0000   80
 Side 2 forced transition at x/c =  1.0000   82

   2   rms: 0.5522E-02   max: 0.5647E-01   D at    3  2
       a =  2.700      CL = -0.0255
      Cm = -0.0143     CD =  0.04703   =>   CDf =  0.01241    CDp =  0.03462

 Side 1 forced transition at x/c =  1.0000   80
 Side 2 forced transition at x/c =  1.0000   82

   3   rms: 0.4957E-04   max: 0.3811E-03   D at    5  2
       a =  2.700      CL = -0.0255
      Cm = -0.0143     CD =  0.04702   =>   CDf =  0.01242    CDp =  0.03460
 plradd ia,ip,cpol           55          79  0.19712920    

 Point added to stored polar  1
 Save file unspecified or not available
 Dump file unspecified or not available

.OPERva   c>  
.OPERva   c>  
.OPERva   c>   Calculating wake trajectory ...
 Calculating source influence matrix ...

 Solving BL system ...

 Side 1 forced transition at x/c =  1.0000   80
 Side 2 forced transition at x/c =  1.0000   82

   1   rms: 0.7859E-02   max: -.5190E-01   D at    3  1   RLX: 0.529
       a =  2.750      CL = -0.0233
      Cm = -0.0145     CD =  0.04717   =>   CDf =  0.01242    CDp =  0.03475

 Side 1 forced transition at x/c =  1.0000   80
 Side 2 forced transition at x/c =  1.0000   82

   2   rms: 0.3661E-02   max: -.2332E-01   D at    3  1
       a =  2.750      CL = -0.0214
      Cm = -0.0146     CD =  0.04729   =>   CDf =  0.01244    CDp =  0.03485

 Side 1 forced transition at x/c =  1.0000   80
 Side 2 forced transition at x/c =  1.0000   82

   3   rms: 0.3405E-04   max: -.2195E-03   D at    3  2
       a =  2.750      CL = -0.0214
      Cm = -0.0146     CD =  0.04728   =>   CDf =  0.01245    CDp =  0.03483
 plradd ia,ip,cpol           56          79  0.19712920    

 Point added to stored polar  1
 Save file unspecified or not available
 Dump file unspecified or not available

.OPERva   c>  
.OPERva   c>  
.OPERva   c>   Calculating wake trajectory ...
 Calculating source influence matrix ...

 Solving BL system ...

 Side 1 forced transition at x/c =  1.0000   80
 Side 2 forced transition at x/c =  1.0000   82

   1   rms: 0.1128E-01   max: -.1034E+00   D at    4  2   RLX: 0.528
       a =  2.800      CL = -0.0192
      Cm = -0.0148     CD =  0.04742   =>   CDf =  0.01245    CDp =  0.03498

 Side 1 forced transition at x/c =  1.0000   80
 Side 2 forced transition at x/c =  1.0000   82

   2   rms: 0.5452E-02   max: -.5189E-01   D at    4  2
       a =  2.800      CL = -0.0172
      Cm = -0.0150     CD =  0.04754   =>   CDf =  0.01246    CDp =  0.03508

 Side 1 forced transition at x/c =  1.0000   80
 Side 2 forced transition at x/c =  1.0000   82

   3   rms: 0.5677E-04   max: -.6753E-03   D at    4  2
       a =  2.800      CL = -0.0172
      Cm = -0.0150     CD =  0.04753   =>   CDf =  0.01247    CDp =  0.03506
 plradd ia,ip,cpol           57          79  0.19712920    

 Point added to stored polar  1
 Save file unspecified or not available
 Dump file unspecified or not available

.OPERva   c>  
.OPERva   c>  
.OPERva   c>   Calculating wake trajectory ...
 Calculating source influence matrix ...

 Solving BL system ...

 Side 1 forced transition at x/c =  1.0000   80
 Side 2 forced transition at x/c =  1.0000   82

   1   rms: 0.9687E-02   max: 0.7883E-01   D at    4  2   RLX: 0.527
       a =  2.850      CL = -0.0150
      Cm = -0.0152     CD =  0.04768   =>   CDf =  0.01247    CDp =  0.03521

 Side 1 forced transition at x/c =  1.0000   80
 Side 2 forced transition at x/c =  1.0000   82

   2   rms: 0.4571E-02   max: 0.3804E-01   D at    4  2
       a =  2.850      CL = -0.0131
      Cm = -0.0154     CD =  0.04780   =>   CDf =  0.01248    CDp =  0.03532

 Side 1 forced transition at x/c =  1.0000   80
 Side 2 forced transition at x/c =  1.0000   82

   3   rms: 0.4598E-04   max: -.4322E-03   D at    3  2
       a =  2.850      CL = -0.0131
      Cm = -0.0154     CD =  0.04779   =>   CDf =  0.01249    CDp =  0.03530
 plradd ia,ip,cpol           58          79  0.19712920    

 Point added to stored polar  1
 Save file unspecified or not available
 Dump file unspecified or not available

.OPERva   c>  
.OPERva   c>  
.OPERva   c>   Calculating wake trajectory ...
 Calculating source influence matrix ...

 Solving BL system ...

 Side 1 forced transition at x/c =  1.0000   80
 Side 2 forced transition at x/c =  1.0000   82

   1   rms: 0.1329E-01   max: -.1579E+00   T at    3  2   RLX: 0.526
       a =  2.900      CL = -0.0109
      Cm = -0.0155     CD =  0.04794   =>   CDf =  0.01247    CDp =  0.03547

 Side 1 forced transition at x/c =  1.0000   81
 Side 2 forced transition at x/c =  1.0000   81

   2   rms: 0.1977E-01   max: -.3160E+00   T at    2  1
       a =  2.900      CL = -0.0090
      Cm = -0.0157     CD =  0.04806   =>   CDf =  0.01251    CDp =  0.03555

 Side 1 forced transition at x/c =  1.0000   81
 Side 2 forced transition at x/c =  1.0000   81

   3   rms: 0.2003E-02   max: -.2957E-01   D at    4  1
       a =  2.900      CL = -0.0090
      Cm = -0.0157     CD =  0.04805   =>   CDf =  0.01252    CDp =  0.03553

 Side 1 forced transition at x/c =  1.0000   81
 Side 2 forced transition at x/c =  1.0000   81

   4   rms: 0.1458E-04   max: 0.1596E-03   D at    8  1
       a =  2.900      CL = -0.0090
      Cm = -0.0157     CD =  0.04805   =>   CDf =  0.01252    CDp =  0.03553
 plradd ia,ip,cpol           59          80  0.19712920    

 Point added to stored polar  1
 Save file unspecified or not available
 Dump file unspecified or not available

.OPERva   c>  
.OPERva   c>  
.OPERva   c>   Calculating wake trajectory ...
 Calculating source influence matrix ...

 Solving BL system ...

 Side 1 forced transition at x/c =  1.0000   81
 Side 2 forced transition at x/c =  1.0000   81

   1   rms: 0.9066E-02   max: -.5924E-01   D at    3  1   RLX: 0.525
       a =  2.950      CL = -0.0068
      Cm = -0.0159     CD =  0.04820   =>   CDf =  0.01252    CDp =  0.03568

 Side 1 forced transition at x/c =  1.0000   81
 Side 2 forced transition at x/c =  1.0000   81

   2   rms: 0.4380E-02   max: -.2833E-01   D at    3  1
       a =  2.950      CL = -0.0048
      Cm = -0.0161     CD =  0.04833   =>   CDf =  0.01253    CDp =  0.03579

 Side 1 forced transition at x/c =  1.0000   81
 Side 2 forced transition at x/c =  1.0000   81

   3   rms: 0.4200E-04   max: -.2558E-03   D at    6  2
       a =  2.950      CL = -0.0049
      Cm = -0.0161     CD =  0.04831   =>   CDf =  0.01254    CDp =  0.03577
 plradd ia,ip,cpol           60          80  0.19712920    

 Point added to stored polar  1
 Save file unspecified or not available
 Dump file unspecified or not available

.OPERva   c>  
.OPERva   c>  
.OPERva   c>   Calculating wake trajectory ...
 Calculating source influence matrix ...

 Solving BL system ...

 Side 1 forced transition at x/c =  1.0000   81
 Side 2 forced transition at x/c =  1.0000   81

   1   rms: 0.1246E-01   max: -.1128E+00   D at    3  1   RLX: 0.523
       a =  3.000      CL = -0.0027
      Cm = -0.0162     CD =  0.04847   =>   CDf =  0.01254    CDp =  0.03592

 Side 1 forced transition at x/c =  1.0000   81
 Side 2 forced transition at x/c =  1.0000   81

   2   rms: 0.6198E-02   max: -.5483E-01   D at    3  1
       a =  3.000      CL = -0.0007
      Cm = -0.0164     CD =  0.04859   =>   CDf =  0.01255    CDp =  0.03604

 Side 1 forced transition at x/c =  1.0000   81
 Side 2 forced transition at x/c =  1.0000   81

   3   rms: 0.6040E-04   max: 0.5307E-03   D at    5  2
       a =  3.000      CL = -0.0007
      Cm = -0.0164     CD =  0.04858   =>   CDf =  0.01256    CDp =  0.03601
 plradd ia,ip,cpol           61          80  0.19712920    

 Point added to stored polar  1
 Save file unspecified or not available
 Dump file unspecified or not available

.OPERva   c>  
.OPERva   c>  
.OPERva   c>   Calculating wake trajectory ...
 Calculating source influence matrix ...

 Solving BL system ...

 Side 1 forced transition at x/c =  1.0000   81
 Side 2 forced transition at x/c =  1.0000   81

   1   rms: 0.1400E-01   max: 0.1575E+00   D at    3  1   RLX: 0.522
       a =  3.050      CL =  0.0014
      Cm = -0.0166     CD =  0.04873   =>   CDf =  0.01256    CDp =  0.03617

 Side 1 forced transition at x/c =  1.0000   81
 Side 2 forced transition at x/c =  1.0000   81

   2   rms: 0.6084E-02   max: 0.6640E-01   D at    3  1
       a =  3.050      CL =  0.0033
[...]

 Point added to stored polar  1
 Save file unspecified or not available
 Dump file unspecified or not available

.OPERva   c>  
.OPERva   c>  
.OPERva   c>   Calculating wake trajectory ...
 Calculating source influence matrix ...

 Solving BL system ...

 Side 1 forced transition at x/c =  1.0000   82
 Side 2 forced transition at x/c =  1.0000   80

   1   rms: 0.7200E-02   max: -.4655E-01   D at    5  2   RLX: 0.489
       a =  4.500      CL =  0.1118
      Cm = -0.0252     CD =  0.05753   =>   CDf =  0.01302    CDp =  0.04451

 Side 1 forced transition at x/c =  1.0000   82
 Side 2 forced transition at x/c =  1.0000   80

   2   rms: 0.3709E-02   max: -.2457E-01   D at    5  2
       a =  4.500      CL =  0.1137
      Cm = -0.0254     CD =  0.05770   =>   CDf =  0.01303    CDp =  0.04467

 Side 1 forced transition at x/c =  1.0000   82
 Side 2 forced transition at x/c =  1.0000   80

   3   rms: 0.1097E-03   max: 0.1266E-02   D at    4  2
       a =  4.500      CL =  0.1136
      Cm = -0.0254     CD =  0.05768   =>   CDf =  0.01303    CDp =  0.04465

 Side 1 forced transition at x/c =  1.0000   82
 Side 2 forced transition at x/c =  1.0000   80

   4   rms: 0.1365E-05   max: -.1605E-04   D at    4  2
       a =  4.500      CL =  0.1136
      Cm = -0.0254     CD =  0.05768   =>   CDf =  0.01303    CDp =  0.04465
 plradd ia,ip,cpol           90          81  0.15274723    

 Point added to stored polar  1
 Save file unspecified or not available
 Dump file unspecified or not available

.OPERva   c>  
.OPERva   c>  
.OPERva   c>   Calculating wake trajectory ...
 Calculating source influence matrix ...

 Solving BL system ...

 Side 1 forced transition at x/c =  1.0000   82
 Side 2 forced transition at x/c =  1.0000   80

   1   rms: 0.7888E-02   max: 0.4253E-01   D at    5  2   RLX: 0.487
       a =  4.550      CL =  0.1154
      Cm = -0.0255     CD =  0.05787   =>   CDf =  0.01287    CDp =  0.04500

 Side 1 forced transition at x/c =  1.0000   83
 Side 2 forced transition at x/c =  1.0000   79

   2   rms: 0.3019E-01   max: -.5362E+00   D at    2  1   RLX: 0.933
       a =  4.550      CL =  0.1170
      Cm = -0.0256     CD =  0.05803   =>   CDf =  0.01304    CDp =  0.04499

 Side 1 forced transition at x/c =  1.0000   83
 Side 2 forced transition at x/c =  1.0000   79

   3   rms: 0.3693E-02   max: -.5172E-01   D at    4  1
       a =  4.550      CL =  0.1172
      Cm = -0.0256     CD =  0.05802   =>   CDf =  0.01304    CDp =  0.04498

 Side 1 forced transition at x/c =  1.0000   83
 Side 2 forced transition at x/c =  1.0000   79

   4   rms: 0.2698E-04   max: -.3700E-03   D at    4  1
       a =  4.550      CL =  0.1172
      Cm = -0.0256     CD =  0.05802   =>   CDf =  0.01304    CDp =  0.04498
 plradd ia,ip,cpol           91          82  0.15274723    

 Point added to stored polar  1
 Save file unspecified or not available
 Dump file unspecified or not available

.OPERva   c>  
.OPERva   c>  
.OPERva   c>   Calculating wake trajectory ...
 Calculating source influence matrix ...

 Solving BL system ...

 Side 1 forced transition at x/c =  1.0000   83
 Side 2 forced transition at x/c =  1.0000   79

   1   rms: 0.7949E-02   max: -.6033E-01   D at    3  2   RLX: 0.486
       a =  4.600      CL =  0.1189
      Cm = -0.0258     CD =  0.05820   =>   CDf =  0.01304    CDp =  0.04516

 Side 1 forced transition at x/c =  1.0000   83
 Side 2 forced transition at x/c =  1.0000   79

   2   rms: 0.4120E-02   max: -.3218E-01   D at    3  2
       a =  4.600      CL =  0.1207
      Cm = -0.0259     CD =  0.05838   =>   CDf =  0.01305    CDp =  0.04533

 Side 1 forced transition at x/c =  1.0000   83
 Side 2 forced transition at x/c =  1.0000   79

   3   rms: 0.5291E-04   max: -.4458E-03   D at    4  1
       a =  4.600      CL =  0.1206
      Cm = -0.0259     CD =  0.05836   =>   CDf =  0.01305    CDp =  0.04531
 plradd ia,ip,cpol           92          82  0.15274723    

 Point added to stored polar  1
 Save file unspecified or not available
 Dump file unspecified or not available

.OPERva   c>  
.OPERva   c>  
.OPERva   c>   Calculating wake trajectory ...
 Calculating source influence matrix ...

 Solving BL system ...

 Side 1 forced transition at x/c =  1.0000   83
 Side 2 forced transition at x/c =  1.0000   79

   1   rms: 0.8280E-02   max: 0.5859E-01   D at    4  1   RLX: 0.485
       a =  4.650      CL =  0.1224
      Cm = -0.0260     CD =  0.05854   =>   CDf =  0.01305    CDp =  0.04549

 Side 1 forced transition at x/c =  1.0000   83
 Side 2 forced transition at x/c =  1.0000   79

   2   rms: 0.4236E-02   max: 0.3063E-01   D at    3  2
       a =  4.650      CL =  0.1242
      Cm = -0.0261     CD =  0.05872   =>   CDf =  0.01306    CDp =  0.04566

 Side 1 forced transition at x/c =  1.0000   83
 Side 2 forced transition at x/c =  1.0000   79

   3   rms: 0.4434E-04   max: -.4782E-03   D at    4  1
       a =  4.650      CL =  0.1242
      Cm = -0.0261     CD =  0.05870   =>   CDf =  0.01306    CDp =  0.04564
 plradd ia,ip,cpol           93          82  0.13836193    

 Point added to stored polar  1
 Save file unspecified or not available
 Dump file unspecified or not available

.OPERva   c>  
.OPERva   c>  
.OPERva   c>   Calculating wake trajectory ...
 Calculating source influence matrix ...

 Solving BL system ...

 Side 1 forced transition at x/c =  1.0000   83
 Side 2 forced transition at x/c =  1.0000   79

   1   rms: 0.1075E-01   max: -.1256E+00   D at    3  1   RLX: 0.484
       a =  4.700      CL =  0.1259
      Cm = -0.0263     CD =  0.05889   =>   CDf =  0.01306    CDp =  0.04583

 Side 1 forced transition at x/c =  1.0000   83
 Side 2 forced transition at x/c =  1.0000   79

   2   rms: 0.5678E-02   max: -.6507E-01   D at    3  1
       a =  4.700      CL =  0.1277
      Cm = -0.0264     CD =  0.05907   =>   CDf =  0.01306    CDp =  0.04600

 Side 1 forced transition at x/c =  1.0000   83
 Side 2 forced transition at x/c =  1.0000   79

   3   rms: 0.5104E-04   max: -.4151E-03   D at    6  2
       a =  4.700      CL =  0.1277
      Cm = -0.0264     CD =  0.05904   =>   CDf =  0.01307    CDp =  0.04598
 plradd ia,ip,cpol           94          82  0.13836193    

 Point added to stored polar  1
 Save file unspecified or not available
 Dump file unspecified or not available

.OPERva   c>  
.OPERva   c>  
.OPERva   c>   Calculating wake trajectory ...
 Calculating source influence matrix ...

 Solving BL system ...

 Side 1 forced transition at x/c =  1.0000   83
 Side 2 forced transition at x/c =  1.0000   79

   1   rms: 0.7205E-02   max: -.4973E-01   D at    6  2   RLX: 0.483
       a =  4.750      CL =  0.1293
      Cm = -0.0265     CD =  0.05923   =>   CDf =  0.01307    CDp =  0.04616

 Side 1 forced transition at x/c =  1.0000   83
 Side 2 forced transition at x/c =  1.0000   79

   2   rms: 0.3726E-02   max: -.2616E-01   D at    6  2
       a =  4.750      CL =  0.1312
      Cm = -0.0266     CD =  0.05941   =>   CDf =  0.01307    CDp =  0.04634

 Side 1 forced transition at x/c =  1.0000   83
 Side 2 forced transition at x/c =  1.0000   79

   3   rms: 0.3813E-04   max: 0.3418E-03   D at   93  2
       a =  4.750      CL =  0.1311
      Cm = -0.0266     CD =  0.05939   =>   CDf =  0.01308    CDp =  0.04631
 plradd ia,ip,cpol           95          82  0.13836193    

 Point added to stored polar  1
 Save file unspecified or not available
 Dump file unspecified or not available

.OPERva   c>  
.OPERva   c>  
.OPERva   c>   Calculating wake trajectory ...
 Calculating source influence matrix ...

 Solving BL system ...

 Side 1 forced transition at x/c =  1.0000   83
 Side 2 forced transition at x/c =  1.0000   79

   1   rms: 0.7013E-02   max: -.3017E-01   D at    7  2   RLX: 0.481
       a =  4.800      CL =  0.1328
      Cm = -0.0268     CD =  0.05958   =>   CDf =  0.01308    CDp =  0.04650

 Side 1 forced transition at x/c =  1.0000   83
 Side 2 forced transition at x/c =  1.0000   79

   2   rms: 0.3621E-02   max: -.1586E-01   D at    7  2
       a =  4.800      CL =  0.1346
      Cm = -0.0269     CD =  0.05976   =>   CDf =  0.01308    CDp =  0.04668

 Side 1 forced transition at x/c =  1.0000   83
 Side 2 forced transition at x/c =  1.0000   79

   3   rms: 0.3537E-04   max: 0.3547E-03   D at   93  2
       a =  4.800      CL =  0.1346
      Cm = -0.0269     CD =  0.05974   =>   CDf =  0.01308    CDp =  0.04665
 plradd ia,ip,cpol           96          82  0.13836193    

 Point added to stored polar  1
 Save file unspecified or not available
 Dump file unspecified or not available

.OPERva   c>  
.OPERva   c>  
.OPERva   c>   Calculating wake trajectory ...
 Calculating source influence matrix ...

 Solving BL system ...

 Side 1 forced transition at x/c =  1.0000   83
 Side 2 forced transition at x/c =  1.0000   79

   1   rms: 0.6856E-02   max: -.1357E-01   C at   79  2   RLX: 0.480
       a =  4.850      CL =  0.1363
      Cm = -0.0270     CD =  0.05993   =>   CDf =  0.01308    CDp =  0.04684

 Side 1 forced transition at x/c =  1.0000   83
 Side 2 forced transition at x/c =  1.0000   79

   2   rms: 0.3551E-02   max: -.6983E-02   C at   79  2
       a =  4.850      CL =  0.1381
      Cm = -0.0271     CD =  0.06011   =>   CDf =  0.01309    CDp =  0.04702

 Side 1 forced transition at x/c =  1.0000   83
 Side 2 forced transition at x/c =  1.0000   79

   3   rms: 0.3573E-04   max: 0.3614E-03   D at   93  2
       a =  4.850      CL =  0.1381
      Cm = -0.0271     CD =  0.06009   =>   CDf =  0.01309    CDp =  0.04700
 plradd ia,ip,cpol           97          82  0.13836193    

 Point added to stored polar  1
 Save file unspecified or not available
 Dump file unspecified or not available

.OPERva   c>  
.OPERva   c>  
.OPERva   c>   Calculating wake trajectory ...
 Calculating source influence matrix ...

 Solving BL system ...

 Side 1 forced transition at x/c =  1.0000   83
 Side 2 forced transition at x/c =  1.0000   79

   1   rms: 0.7069E-02   max: -.3095E-01   D at    5  2   RLX: 0.479
       a =  4.900      CL =  0.1397
      Cm = -0.0273     CD =  0.06028   =>   CDf =  0.01309    CDp =  0.04718

 Side 1 forced transition at x/c =  1.0000   83
 Side 2 forced transition at x/c =  1.0000   79

   2   rms: 0.3680E-02   max: -.1643E-01   D at    5  2
       a =  4.900      CL =  0.1415
      Cm = -0.0274     CD =  0.06046   =>   CDf =  0.01310    CDp =  0.04737

 Side 1 forced transition at x/c =  1.0000   83
 Side 2 forced transition at x/c =  1.0000   79

   3   rms: 0.3603E-04   max: 0.3504E-03   D at   93  2
       a =  4.900      CL =  0.1415
      Cm = -0.0274     CD =  0.06044   =>   CDf =  0.01310    CDp =  0.04734
 plradd ia,ip,cpol           98          82  0.13836193    

 Point added to stored polar  1
 Save file unspecified or not available
 Dump file unspecified or not available

.OPERva   c>  
.OPERva   c>  
.OPERva   c>   Calculating wake trajectory ...
 Calculating source influence matrix ...

 Solving BL system ...

 Side 1 forced transition at x/c =  1.0000   83
 Side 2 forced transition at x/c =  1.0000   79

   1   rms: 0.1120E-01   max: 0.1119E+00   D at    3  1   RLX: 0.478
       a =  4.950      CL =  0.1431
      Cm = -0.0275     CD =  0.06063   =>   CDf =  0.01310    CDp =  0.04753

 Side 1 forced transition at x/c =  1.0000   83
 Side 2 forced transition at x/c =  1.0000   79

   2   rms: 0.5561E-02   max: 0.5306E-01   D at    3  1
       a =  4.950      CL =  0.1449
      Cm = -0.0276     CD =  0.06082   =>   CDf =  0.01310    CDp =  0.04772

 Side 1 forced transition at x/c =  1.0000   83
 Side 2 forced transition at x/c =  1.0000   79

   3   rms: 0.8458E-04   max: -.9851E-03   D at    3  1
       a =  4.950      CL =  0.1449
      Cm = -0.0276     CD =  0.06080   =>   CDf =  0.01310    CDp =  0.04769
 plradd ia,ip,cpol           99          82  0.13836193    

 Point added to stored polar  1
 Save file unspecified or not available
 Dump file unspecified or not available

.OPERva   c>  
.OPERva   c>  
.OPERva   c>   Calculating wake trajectory ...
 Calculating source influence matrix ...

 Solving BL system ...

 Side 1 forced transition at x/c =  1.0000   83
 Side 2 forced transition at x/c =  1.0000   79

   1   rms: 0.6486E-02   max: -.1284E-01   C at   79  2   RLX: 0.476
       a =  5.000      CL =  0.1465
      Cm = -0.0278     CD =  0.06099   =>   CDf =  0.01311    CDp =  0.04788

 Side 1 forced transition at x/c =  1.0000   83
 Side 2 forced transition at x/c =  1.0000   79

   2   rms: 0.3393E-02   max: -.6638E-02   C at   79  2
       a =  5.000      CL =  0.1483
      Cm = -0.0279     CD =  0.06118   =>   CDf =  0.01311    CDp =  0.04807

 Side 1 forced transition at x/c =  1.0000   83
 Side 2 forced transition at x/c =  1.0000   79

   3   rms: 0.3486E-04   max: 0.3582E-03   D at   93  2
       a =  5.000      CL =  0.1483
      Cm = -0.0279     CD =  0.06116   =>   CDf =  0.01311    CDp =  0.04804
 plradd ia,ip,cpol          100          82  0.13836193    

 Point added to stored polar  1
 Save file unspecified or not available
 Dump file unspecified or not available

.OPERva   c>  
.OPERva   c>  
.OPERva   c>   Calculating wake trajectory ...
 Calculating source influence matrix ...

 Solving BL system ...

 Side 1 forced transition at x/c =  1.0000   83
 Side 2 forced transition at x/c =  1.0000   79

   1   rms: 0.9053E-02   max: -.8614E-01   D at    3  2   RLX: 0.475
       a =  5.050      CL =  0.1499
      Cm = -0.0280     CD =  0.06135   =>   CDf =  0.01311    CDp =  0.04824

 Side 1 forced transition at x/c =  1.0000   83
 Side 2 forced transition at x/c =  1.0000   79

   2   rms: 0.4925E-02   max: -.4892E-01   D at    3  2
       a =  5.050      CL =  0.1517
      Cm = -0.0281     CD =  0.06154   =>   CDf =  0.01311    CDp =  0.04843

 Side 1 forced transition at x/c =  1.0000   83
 Side 2 forced transition at x/c =  1.0000   79

   3   rms: 0.7355E-04   max: -.8748E-03   D at    3  2
       a =  5.050      CL =  0.1517
      Cm = -0.0281     CD =  0.06152   =>   CDf =  0.01312    CDp =  0.04840
 plradd ia,ip,cpol          101          82  0.12443948    

 Point added to stored polar  1
 Save file unspecified or not available
 Dump file unspecified or not available

.OPERva   c>  
.OPERva   c>  
.OPERva   c>   Calculating wake trajectory ...
 Calculating source influence matrix ...

 Solving BL system ...

 Side 1 forced transition at x/c =  1.0000   83
 Side 2 forced transition at x/c =  1.0000   79

   1   rms: 0.8973E-02   max: 0.6433E-01   D at    4  2   RLX: 0.474
       a =  5.100      CL =  0.1533
      Cm = -0.0283     CD =  0.06171   =>   CDf =  0.01312    CDp =  0.04859

 Side 1 forced transition at x/c =  1.0000   83
 Side 2 forced transition at x/c =  1.0000   79

   2   rms: 0.4666E-02   max: 0.3430E-01   D at    4  2
       a =  5.100      CL =  0.1551
      Cm = -0.0284     CD =  0.06190   =>   CDf =  0.01312    CDp =  0.04878

 Side 1 forced transition at x/c =  1.0000   83
 Side 2 forced transition at x/c =  1.0000   79

   3   rms: 0.5078E-04   max: -.4779E-03   D at    4  2
       a =  5.100      CL =  0.1550
      Cm = -0.0284     CD =  0.06188   =>   CDf =  0.01312    CDp =  0.04876
 plradd ia,ip,cpol          102          82  0.12443948    

 Point added to stored polar  1
 Save file unspecified or not available
 Dump file unspecified or not available

.OPERva   c>  
.OPERva   c>  
.OPERva   c>   Calculating wake trajectory ...
 Calculating source influence matrix ...

 Solving BL system ...

 Side 1 forced transition at x/c =  1.0000   83
 Side 2 forced transition at x/c =  1.0000   79

   1   rms: 0.9371E-02   max: -.6657E-01   D at    4  2   RLX: 0.473
       a =  5.150      CL =  0.1566
      Cm = -0.0285     CD =  0.06207   =>   CDf =  0.01312    CDp =  0.04895

 Side 1 forced transition at x/c =  1.0000   83
 Side 2 forced transition at x/c =  1.0000   79

   2   rms: 0.4984E-02   max: -.3659E-01   D at    4  2
       a =  5.150      CL =  0.1584
      Cm = -0.0286     CD =  0.06227   =>   CDf =  0.01312    CDp =  0.04914

 Side 1 forced transition at x/c =  1.0000   83
 Side 2 forced transition at x/c =  1.0000   79

   3   rms: 0.4784E-04   max: -.4381E-03   D at    4  2
       a =  5.150      CL =  0.1584
      Cm = -0.0286     CD =  0.06224   =>   CDf =  0.01313    CDp =  0.04912
 plradd ia,ip,cpol          103          82  0.12443948    

 Point added to stored polar  1
 Save file unspecified or not available
 Dump file unspecified or not available

.OPERva   c>  
.OPERva   c>  
.OPERva   c>   Calculating wake trajectory ...
 Calculating source influence matrix ...

 Solving BL system ...

 Side 1 forced transition at x/c =  1.0000   83
 Side 2 forced transition at x/c =  1.0000   79

   1   rms: 0.7043E-02   max: -.3736E-01   D at    8  2   RLX: 0.472
       a =  5.200      CL =  0.1599
      Cm = -0.0287     CD =  0.06244   =>   CDf =  0.01313    CDp =  0.04931

 Side 1 forced transition at x/c =  1.0000   83
 Side 2 forced transition at x/c =  1.0000   79

   2   rms: 0.3708E-02   max: -.1995E-01   D at    8  2
       a =  5.200      CL =  0.1617
      Cm = -0.0289     CD =  0.06263   =>   CDf =  0.01313    CDp =  0.04950

 Side 1 forced transition at x/c =  1.0000   83
 Side 2 forced transition at x/c =  1.0000   79

   3   rms: 0.3448E-04   max: 0.3451E-03   D at   93  2
       a =  5.200      CL =  0.1617
      Cm = -0.0289     CD =  0.06261   =>   CDf =  0.01313    CDp =  0.04948
 plradd ia,ip,cpol          104          82  0.12443948    

 Point added to stored polar  1
 Save file unspecified or not available
 Dump file unspecified or not available

.OPERva   c>  
.OPERva   c>  
.OPERva   c>   Calculating wake trajectory ...
 Calculating source influence matrix ...

 Solving BL system ...

 Side 1 forced transition at x/c =  1.0000   83
 Side 2 forced transition at x/c =  1.0000   79

   1   rms: 0.8121E-02   max: -.6127E-01   D at    4  1   RLX: 0.470
       a =  5.250      CL =  0.1633
      Cm = -0.0290     CD =  0.06280   =>   CDf =  0.01313    CDp =  0.04967

 Side 1 forced transition at x/c =  1.0000   83
 Side 2 forced transition at x/c =  1.0000   79

   2   rms: 0.4329E-02   max: -.3231E-01   D at    4  1
       a =  5.250      CL =  0.1650
      Cm = -0.0291     CD =  0.06300   =>   CDf =  0.01313    CDp =  0.04987

 Side 1 forced transition at x/c =  1.0000   83
 Side 2 forced transition at x/c =  1.0000   79

   3   rms: 0.4230E-04   max: 0.3817E-03   D at   94  2
       a =  5.250      CL =  0.1650
      Cm = -0.0291     CD =  0.06298   =>   CDf =  0.01313    CDp =  0.04984
 plradd ia,ip,cpol          105          82  0.12443948    

 Point added to stored polar  1
 Save file unspecified or not available
 Dump file unspecified or not available

.OPERva   c>  
.OPERva   c>  
.OPERva   c>   Calculating wake trajectory ...
 Calculating source influence matrix ...

 Solving BL system ...

 Side 1 forced transition at x/c =  1.0000   83
 Side 2 forced transition at x/c =  1.0000   79

   1   rms: 0.1143E-01   max: -.1264E+00   D at    3  2   RLX: 0.469
       a =  5.300      CL =  0.1666
      Cm = -0.0292     CD =  0.06317   =>   CDf =  0.01314    CDp =  0.05004

 Side 1 forced transition at x/c =  1.0000   83
 Side 2 forced transition at x/c =  1.0000   79

   2   rms: 0.6310E-02   max: -.7103E-01   D at    3  2
       a =  5.300      CL =  0.1684
      Cm = -0.0294     CD =  0.06337   =>   CDf =  0.01314    CDp =  0.05024

 Side 1 forced transition at x/c =  1.0000   83
 Side 2 forced transition at x/c =  1.0000   79

   3   rms: 0.1026E-03   max: -.1384E-02   D at    3  2
       a =  5.300      CL =  0.1684
      Cm = -0.0294     CD =  0.06335   =>   CDf =  0.01314    CDp =  0.05021

 Side 1 forced transition at x/c =  1.0000   83
 Side 2 forced transition at x/c =  1.0000   79

   4   rms: 0.5650E-06   max: -.2800E-05   D at   78  2
       a =  5.300      CL =  0.1684
      Cm = -0.0294     CD =  0.06335   =>   CDf =  0.01314    CDp =  0.05021
