
 ===================================================
  XFOIL Version 6.99
  Copyright (C) 2000   Mark Drela, Harold Youngren

  This software comes with ABSOLUTELY NO WARRANTY,
    subject to the GNU General Public License.

  Caveat computor
 ===================================================

 File  xfoil.def  not found

   QUIT    Exit program

  .OPER    Direct operating point(s)
  .MDES    Complex mapping design routine
  .QDES    Surface speed design routine
  .GDES    Geometry design routine

   SAVE f  Write airfoil to labeled coordinate file
   PSAV f  Write airfoil to plain coordinate file
   ISAV f  Write airfoil to ISES coordinate file
   MSAV f  Write airfoil to MSES coordinate file
   REVE    Reverse written-airfoil node ordering

   LOAD f  Read buffer airfoil from coordinate file
   NACA i  Set NACA 4,5-digit airfoil and buffer airfoil
   INTE    Set buffer airfoil by interpolating two airfoils
   NORM    Buffer airfoil normalization toggle
   XYCM rr Change CM reference location, currently  0.25000 0.00000

   BEND    Display structural properties of current airfoil

   PCOP    Set current-airfoil panel nodes directly from buffer airfoil points
   PANE    Set current-airfoil panel nodes ( 160 ) based on curvature
  .PPAR    Show/change paneling

  .PLOP    Plotting options

   WDEF f  Write  current-settings file
   RDEF f  Reread current-settings file
   NAME s  Specify new airfoil name
   NINC    Increment name version number

   Z       Zoom    | (available in all menus)
   U       Unzoom  | 

 XFOIL   c>  
 Labeled airfoil file.  Name:  SG6040                                          

 Number of input coordinate points:  81
 Counterclockwise ordering
 Max thickness =     0.160016  at x =   0.353
 Max camber    =     0.025156  at x =   0.582

  LE  x,y  =   0.00009  -0.00040  |   Chord =   0.99991
  TE  x,y  =   1.00000   0.00000  |

 Current airfoil nodes set from buffer airfoil nodes (  81 )

 XFOIL   c>  
  F  disk file
  C  current airfoil  SG6040                                          

  Select source of airfoil "0" ( F C ):  
Enter filename   s>  
  Select source of airfoil "1" ( F C ):  
Enter filename   s>  
 airfoil "0":  SG6040                                          
 airfoil "1":  SG6040                                          

Specify interpolating fraction  0...1   r>   Max thickness =     0.160016  at x =   0.353
 Max camber    =     0.025156  at x =   0.582

Enter new airfoil name   s>  
 Result has been placed in buffer airfoil
 Execute PCOP or PANE to set new current airfoil

 XFOIL   c>  
 Sharp trailing edge

 Paneling parameters used...
   Number of panel nodes       160
   Panel bunching parameter    1.000
   TE/LE panel density ratio   0.150
   Refined-area/LE panel density ratio    0.200
   Top    side refined area x/c limits  1.000 1.000
   Bottom side refined area x/c limits  1.000 1.000

 XFOIL   c>  
 XFOIL   c>  
 XFOIL   c>  
.OPERi   c>  
.OPERi   c>  
 Sonic Cp =   -550.04      Sonic Q/Qinf =    26.096


.OPERi   c>  
 M  =    0.0350
 Re =     35000

.OPERv   c>  
 Polar  1 newly created for accumulation
 Airfoil archived with polar: BlendedAirfoil                                  

Enter  polar save filename  OR  <return> for no file   s>  
 Polar save file will NOT be written

Enter  polar dump filename  OR  <return> for no file   s>  
 Polar dump file will NOT be written

 Polar accumulation enabled

.OPERva   c>   Calculating unit vorticity distributions ...
 Calculating wake trajectory ...
 Calculating source influence matrix ...

 Solving BL system ...

 Initializing BL ...
    side            1  ...
 MRCHUE: Inverse mode at  53     Hk =   3.800
 MRCHUE: Inverse mode at  54     Hk =   3.999
 MRCHUE: Inverse mode at  55     Hk =   4.195
 MRCHUE: Inverse mode at  56     Hk =   4.386
 MRCHUE: Inverse mode at  57     Hk =   4.573
 MRCHUE: Inverse mode at  58     Hk =   4.757
 MRCHUE: Inverse mode at  59     Hk =   4.937
 MRCHUE: Inverse mode at  60     Hk =   5.115
 MRCHUE: Inverse mode at  61     Hk =   5.290
 MRCHUE: Inverse mode at  62     Hk =   5.462
 MRCHUE: Inverse mode at  63     Hk =   5.632
 MRCHUE: Inverse mode at  64     Hk =   5.800
 MRCHUE: Inverse mode at  65     Hk =   5.966
 MRCHUE: Inverse mode at  66     Hk =   6.130
 MRCHUE: Inverse mode at  67     Hk =   6.294
 MRCHUE: Inverse mode at  68     Hk =   6.456
 MRCHUE: Inverse mode at  69     Hk =   6.617
 MRCHUE: Inverse mode at  70     Hk =   6.777
 MRCHUE: Inverse mode at  71     Hk =   6.935
 MRCHUE: Inverse mode at  72     Hk =   7.091
 MRCHUE: Inverse mode at  73     Hk =   7.245
 MRCHUE: Inverse mode at  74     Hk =   7.398
 MRCHUE: Inverse mode at  75     Hk =   7.547
 MRCHUE: Inverse mode at  76     Hk =   7.693
 MRCHUE: Inverse mode at  77     Hk =   7.833
 MRCHUE: Inverse mode at  78     Hk =   7.966
 MRCHUE: Inverse mode at  79     Hk =   8.092
 MRCHUE: Inverse mode at  80     Hk =   8.209
 MRCHUE: Inverse mode at  81     Hk =   8.315
 MRCHUE: Inverse mode at  82     Hk =   8.408
 MRCHUE: Inverse mode at  83     Hk =   8.462
    side            2  ...
 MRCHUE: Inverse mode at  49     Hk =   3.800
 MRCHUE: Inverse mode at  50     Hk =   3.987
 MRCHUE: Inverse mode at  51     Hk =   4.172
 MRCHUE: Inverse mode at  52     Hk =   4.354
 MRCHUE: Inverse mode at  53     Hk =   4.534
 MRCHUE: Inverse mode at  54     Hk =   4.712
 MRCHUE: Inverse mode at  55     Hk =   4.887
 MRCHUE: Inverse mode at  56     Hk =   5.060
 MRCHUE: Convergence failed at  57  side 2    Res =  0.2357E+01
 MRCHUE: Inverse mode at  58     Hk =   5.227
 MRCHUE: Inverse mode at  59     Hk =   5.391
 MRCHUE: Inverse mode at  60     Hk =   5.551
 MRCHUE: Inverse mode at  61     Hk =   5.708
 MRCHUE: Convergence failed at  62  side 2    Res =  0.2164E+01
 MRCHUE: Inverse mode at  63     Hk =   5.859
 MRCHUE: Inverse mode at  64     Hk =   6.007
 MRCHUE: Inverse mode at  65     Hk =   6.152
 MRCHUE: Inverse mode at  66     Hk =   6.294
 MRCHUE: Inverse mode at  67     Hk =   6.434
 MRCHUE: Inverse mode at  68     Hk =   6.571
 MRCHUE: Inverse mode at  69     Hk =   6.705
 MRCHUE: Inverse mode at  70     Hk =   6.837
 MRCHUE: Inverse mode at  71     Hk =   6.965
 MRCHUE: Inverse mode at  72     Hk =   7.090
 MRCHUE: Inverse mode at  73     Hk =   7.210
 MRCHUE: Inverse mode at  74     Hk =   7.326
 MRCHUE: Inverse mode at  75     Hk =   7.435
 MRCHUE: Inverse mode at  76     Hk =   7.536
 MRCHUE: Inverse mode at  77     Hk =   7.627
 MRCHUE: Inverse mode at  78     Hk =   7.709
 MRCHUE: Inverse mode at  79     Hk =   7.758
 MRCHUE: Inverse mode at  81     Hk =   5.600
 MRCHUE: Inverse mode at  82     Hk =   4.467
 MRCHUE: Inverse mode at  83     Hk =   3.819
 MRCHUE: Inverse mode at  84     Hk =   3.396
 MRCHUE: Inverse mode at  85     Hk =   3.094

 Side 1 forced transition at x/c =  1.0000   83
 Side 2 forced transition at x/c =  1.0000   79
 idif Ue xi dudx           2  0.34876531      4.69899178E-03   74.221306    
 Uenew xinew           3  0.20835847      2.80725956E-03

   1   rms: 0.8578E+00   max: 0.5094E+01   D at   86  2   RLX: 0.294
       a =  0.000      CL =  0.2547
      Cm = -0.0797     CD =  0.01170   =>   CDf =  0.01348    CDp = -0.00178

 Side 1 forced transition at x/c =  1.0000   81
 Side 2 forced transition at x/c =  1.0000   81
 idif Ue xi dudx           2  0.31119013      4.96876240E-03   62.629303    
 Uenew xinew           3  0.18653788      2.97844410E-03

   2   rms: 0.4576E+00   max: 0.2284E+01   D at   90  2   RLX: 0.657
       a =  0.000      CL = -0.0259
      Cm = -0.0277     CD =  0.02179   =>   CDf =  0.01281    CDp =  0.00898

 MRCHDU: Convergence failed at  91  side 2    Res =  0.3232E+01
 MRCHDU: Convergence failed at  92  side 2    Res =  0.1352E+02
 MRCHDU: Convergence failed at  93  side 2    Res =  0.3208E+01
 MRCHDU: Convergence failed at  94  side 2    Res =  0.1339E+01
 Side 1 forced transition at x/c =  1.0000   79
 Side 2 forced transition at x/c =  1.0000   83
 idif Ue xi dudx           1  0.13164602      2.57802010E-03   51.064777    
 Uenew xinew           2  2.14215461E-02  4.19497490E-04

   3   rms: 0.1862E+00   max: 0.9451E+00   D at   90  2
       a =  0.000      CL = -0.1259
      Cm = -0.0077     CD =  0.03864   =>   CDf =  0.01168    CDp =  0.02696

 Side 1 forced transition at x/c =  1.0000   78
 Side 2 forced transition at x/c =  1.0000   84

   4   rms: 0.1837E-01   max: 0.1681E+00   D at   92  2
       a =  0.000      CL = -0.1245
      Cm = -0.0079     CD =  0.04478   =>   CDf =  0.01101    CDp =  0.03377

 Side 1 forced transition at x/c =  1.0000   78
 Side 2 forced transition at x/c =  1.0000   84

   5   rms: 0.8497E-03   max: 0.6633E-02   D at    4  2
       a =  0.000      CL = -0.1247
      Cm = -0.0078     CD =  0.04445   =>   CDf =  0.01090    CDp =  0.03355

 Side 1 forced transition at x/c =  1.0000   78
 Side 2 forced transition at x/c =  1.0000   84

   6   rms: 0.1207E-04   max: -.8643E-04   D at   96  2
       a =  0.000      CL = -0.1247
      Cm = -0.0078     CD =  0.04446   =>   CDf =  0.01090    CDp =  0.03356
 plradd ia,ip,cpol            1          77  5.41778430E-02

 Point added to stored polar  1
 Save file unspecified or not available
 Dump file unspecified or not available

.OPERva   c>  
.OPERva   c>  
.OPERva   c>   Calculating wake trajectory ...
 Calculating source influence matrix ...

 Solving BL system ...

 Side 1 forced transition at x/c =  1.0000   78
 Side 2 forced transition at x/c =  1.0000   84

   1   rms: 0.1571E-01   max: -.1591E+00   D at    3  2   RLX: 0.823
       a =  0.050      CL = -0.1252
      Cm = -0.0075     CD =  0.04442   =>   CDf =  0.01090    CDp =  0.03352

 Side 1 forced transition at x/c =  1.0000   78
 Side 2 forced transition at x/c =  1.0000   84

   2   rms: 0.3219E-02   max: -.3699E-01   T at    3  2
       a =  0.050      CL = -0.1253
      Cm = -0.0074     CD =  0.04440   =>   CDf =  0.01091    CDp =  0.03350

 Side 1 forced transition at x/c =  1.0000   78
 Side 2 forced transition at x/c =  1.0000   84

   3   rms: 0.1150E-03   max: 0.1421E-02   D at    4  2
       a =  0.050      CL = -0.1253
      Cm = -0.0074     CD =  0.04440   =>   CDf =  0.01091    CDp =  0.03349

 Side 1 forced transition at x/c =  1.0000   78
 Side 2 forced transition at x/c =  1.0000   84

   4   rms: 0.1078E-04   max: 0.1499E-03   D at    4  2
       a =  0.050      CL = -0.1253
      Cm = -0.0074     CD =  0.04440   =>   CDf =  0.01091    CDp =  0.03349
 plradd ia,ip,cpol            2          77  4.66311201E-02

 Point added to stored polar  1
 Save file unspecified or not available
 Dump file unspecified or not available

.OPERva   c>  
.OPERva   c>  
.OPERva   c>   Calculating wake trajectory ...
 Calculating source influence matrix ...

 Solving BL system ...

 Side 1 forced transition at x/c =  1.0000   78
 Side 2 forced transition at x/c =  1.0000   84

   1   rms: 0.2392E-01   max: 0.2725E+00   T at    3  2   RLX: 0.814
       a =  0.100      CL = -0.1258
      Cm = -0.0070     CD =  0.04436   =>   CDf =  0.01091    CDp =  0.03346

 Side 1 forced transition at x/c =  1.0000   78
 Side 2 forced transition at x/c =  1.0000   84

   2   rms: 0.3134E-02   max: 0.2884E-01   D at    3  1
       a =  0.100      CL = -0.1259
      Cm = -0.0070     CD =  0.04435   =>   CDf =  0.01092    CDp =  0.03343

 Side 1 forced transition at x/c =  1.0000   78
 Side 2 forced transition at x/c =  1.0000   84

   3   rms: 0.2782E-04   max: -.2312E-03   D at    6  1
       a =  0.100      CL = -0.1259
      Cm = -0.0070     CD =  0.04435   =>   CDf =  0.01092    CDp =  0.03343
 plradd ia,ip,cpol            3          77  5.41778430E-02

 Point added to stored polar  1
 Save file unspecified or not available
 Dump file unspecified or not available

.OPERva   c>  
.OPERva   c>  
.OPERva   c>   Calculating wake trajectory ...
 Calculating source influence matrix ...

 Solving BL system ...

 Side 1 forced transition at x/c =  1.0000   78
 Side 2 forced transition at x/c =  1.0000   84

   1   rms: 0.1583E-01   max: -.2105E+00   D at    3  2   RLX: 0.805
       a =  0.150      CL = -0.1264
      Cm = -0.0066     CD =  0.04431   =>   CDf =  0.01092    CDp =  0.03340

 Side 1 forced transition at x/c =  1.0000   78
 Side 2 forced transition at x/c =  1.0000   84

   2   rms: 0.3421E-02   max: -.4580E-01   D at    3  2
       a =  0.150      CL = -0.1266
      Cm = -0.0065     CD =  0.04430   =>   CDf =  0.01093    CDp =  0.03337

 Side 1 forced transition at x/c =  1.0000   78
 Side 2 forced transition at x/c =  1.0000   84

   3   rms: 0.4447E-04   max: -.4931E-03   D at    3  2
       a =  0.150      CL = -0.1266
      Cm = -0.0065     CD =  0.04429   =>   CDf =  0.01093    CDp =  0.03337
 plradd ia,ip,cpol            4          77  5.41778430E-02

 Point added to stored polar  1
 Save file unspecified or not available
 Dump file unspecified or not available

.OPERva   c>  
.OPERva   c>  
.OPERva   c>   Calculating wake trajectory ...
 Calculating source influence matrix ...

 Solving BL system ...

 Side 1 forced transition at x/c =  1.0000   78
 Side 2 forced transition at x/c =  1.0000   84

   1   rms: 0.1676E-01   max: -.2044E+00   D at    4  2   RLX: 0.796
       a =  0.200      CL = -0.1271
      Cm = -0.0061     CD =  0.04426   =>   CDf =  0.01093    CDp =  0.03333

 Side 1 forced transition at x/c =  1.0000   78
 Side 2 forced transition at x/c =  1.0000   84

   2   rms: 0.3942E-02   max: -.4780E-01   D at    4  2
       a =  0.200      CL = -0.1273
      Cm = -0.0061     CD =  0.04424   =>   CDf =  0.01094    CDp =  0.03330

 Side 1 forced transition at x/c =  1.0000   78
 Side 2 forced transition at x/c =  1.0000   84

   3   rms: 0.2504E-04   max: 0.2239E-03   D at    6  2
       a =  0.200      CL = -0.1273
      Cm = -0.0061     CD =  0.04424   =>   CDf =  0.01094    CDp =  0.03330
 plradd ia,ip,cpol            5          77  4.66311201E-02

 Point added to stored polar  1
 Save file unspecified or not available
 Dump file unspecified or not available

.OPERva   c>  
.OPERva   c>  
.OPERva   c>   Calculating wake trajectory ...
 Calculating source influence matrix ...

 Solving BL system ...

 Side 1 forced transition at x/c =  1.0000   78
 Side 2 forced transition at x/c =  1.0000   84

   1   rms: 0.1129E-01   max: -.1624E+00   D at    3  2   RLX: 0.788
       a =  0.250      CL = -0.1278
      Cm = -0.0057     CD =  0.04420   =>   CDf =  0.01108    CDp =  0.03312

 Side 1 forced transition at x/c =  1.0000   79
 Side 2 forced transition at x/c =  1.0000   83

   2   rms: 0.2349E-02   max: -.2436E-01   T at    2  2
       a =  0.250      CL = -0.1279
      Cm = -0.0056     CD =  0.04418   =>   CDf =  0.01095    CDp =  0.03323

 Side 1 forced transition at x/c =  1.0000   79
 Side 2 forced transition at x/c =  1.0000   83

   3   rms: 0.1973E-03   max: 0.2609E-02   D at    4  1
       a =  0.250      CL = -0.1279
      Cm = -0.0056     CD =  0.04418   =>   CDf =  0.01096    CDp =  0.03323

 Side 1 forced transition at x/c =  1.0000   79
 Side 2 forced transition at x/c =  1.0000   83

   4   rms: 0.1323E-05   max: 0.1647E-04   D at    4  1
       a =  0.250      CL = -0.1279
      Cm = -0.0056     CD =  0.04418   =>   CDf =  0.01096    CDp =  0.03323
 plradd ia,ip,cpol            6          78  5.41778430E-02

 Point added to stored polar  1
 Save file unspecified or not available
 Dump file unspecified or not available

.OPERva   c>  
.OPERva   c>  
.OPERva   c>   Calculating wake trajectory ...
 Calculating source influence matrix ...

 Solving BL system ...

 Side 1 forced transition at x/c =  1.0000   79
 Side 2 forced transition at x/c =  1.0000   83

   1   rms: 0.7950E-02   max: -.8365E-01   D at    4  1   RLX: 0.779
       a =  0.300      CL = -0.1285
      Cm = -0.0053     CD =  0.04415   =>   CDf =  0.01096    CDp =  0.03319

 Side 1 forced transition at x/c =  1.0000   79
 Side 2 forced transition at x/c =  1.0000   83

   2   rms: 0.1794E-02   max: -.1895E-01   D at    4  1
       a =  0.300      CL = -0.1286
      Cm = -0.0052     CD =  0.04413   =>   CDf =  0.01096    CDp =  0.03316

 Side 1 forced transition at x/c =  1.0000   79
 Side 2 forced transition at x/c =  1.0000   83

   3   rms: 0.1949E-04   max: -.1735E-03   D at   96  2
       a =  0.300      CL = -0.1286
      Cm = -0.0052     CD =  0.04412   =>   CDf =  0.01096    CDp =  0.03316
 plradd ia,ip,cpol            7          78  5.41778430E-02

 Point added to stored polar  1
 Save file unspecified or not available
 Dump file unspecified or not available

.OPERva   c>  
.OPERva   c>  
.OPERva   c>   Calculating wake trajectory ...
 Calculating source influence matrix ...

 Solving BL system ...

 Side 1 forced transition at x/c =  1.0000   79
 Side 2 forced transition at x/c =  1.0000   83
 idif Ue xi dudx           1  9.35998932E-02  2.17735767E-03   42.987835    
 Uenew xinew           2  8.09678808E-04  1.88350677E-05

   1   rms: 0.1586E-01   max: -.1798E+00   D at    3  1   RLX: 0.771
       a =  0.350      CL = -0.1291
      Cm = -0.0048     CD =  0.04408   =>   CDf =  0.01086    CDp =  0.03322

 Side 1 forced transition at x/c =  1.0000   78
 Side 2 forced transition at x/c =  1.0000   84

   2   rms: 0.1601E-01   max: -.2673E+00   T at    2  2
       a =  0.350      CL = -0.1293
      Cm = -0.0047     CD =  0.04406   =>   CDf =  0.01096    CDp =  0.03310

 Side 1 forced transition at x/c =  1.0000   78
 Side 2 forced transition at x/c =  1.0000   84

   3   rms: 0.1428E-02   max: -.1942E-01   D at    4  2
       a =  0.350      CL = -0.1293
      Cm = -0.0047     CD =  0.04406   =>   CDf =  0.01097    CDp =  0.03309

 Side 1 forced transition at x/c =  1.0000   78
 Side 2 forced transition at x/c =  1.0000   84

   4   rms: 0.3479E-05   max: -.4047E-04   D at    4  2
       a =  0.350      CL = -0.1293
      Cm = -0.0047     CD =  0.04406   =>   CDf =  0.01097    CDp =  0.03309
 plradd ia,ip,cpol            8          77  5.41778430E-02

 Point added to stored polar  1
 Save file unspecified or not available
 Dump file unspecified or not available

.OPERva   c>  
.OPERva   c>  
.OPERva   c>   Calculating wake trajectory ...
 Calculating source influence matrix ...

 Solving BL system ...

 Side 1 forced transition at x/c =  1.0000   78
 Side 2 forced transition at x/c =  1.0000   84

   1   rms: 0.2530E-01   max: -.3804E+00   D at    3  2   RLX: 0.763
       a =  0.400      CL = -0.1298
      Cm = -0.0044     CD =  0.04402   =>   CDf =  0.01111    CDp =  0.03292

 Side 1 forced transition at x/c =  1.0000   79
 Side 2 forced transition at x/c =  1.0000   83

   2   rms: 0.8130E-02   max: 0.8702E-01   D at    3  2
       a =  0.400      CL = -0.1300
      Cm = -0.0043     CD =  0.04400   =>   CDf =  0.01098    CDp =  0.03302

 Side 1 forced transition at x/c =  1.0000   79
 Side 2 forced transition at x/c =  1.0000   83

   3   rms: 0.3068E-03   max: -.4221E-02   D at    3  1
       a =  0.400      CL = -0.1300
      Cm = -0.0043     CD =  0.04400   =>   CDf =  0.01098    CDp =  0.03302

 Side 1 forced transition at x/c =  1.0000   79
 Side 2 forced transition at x/c =  1.0000   83

   4   rms: 0.1930E-05   max: -.2407E-04   D at    4  1
       a =  0.400      CL = -0.1300
      Cm = -0.0043     CD =  0.04400   =>   CDf =  0.01098    CDp =  0.03302
 plradd ia,ip,cpol            9          78  5.41778430E-02

 Point added to stored polar  1
 Save file unspecified or not available
 Dump file unspecified or not available

.OPERva   c>  
.OPERva   c>  
.OPERva   c>   Calculating wake trajectory ...
 Calculating source influence matrix ...

 Solving BL system ...

 Side 1 forced transition at x/c =  1.0000   79
 Side 2 forced transition at x/c =  1.0000   83

   1   rms: 0.1369E-01   max: -.1459E+00   D at    3  2   RLX: 0.755
       a =  0.450      CL = -0.1305
      Cm = -0.0039     CD =  0.04396   =>   CDf =  0.01098    CDp =  0.03297

 Side 1 forced transition at x/c =  1.0000   79
 Side 2 forced transition at x/c =  1.0000   83

   2   rms: 0.3857E-02   max: -.3970E-01   D at    3  2
       a =  0.450      CL = -0.1307
      Cm = -0.0038     CD =  0.04393   =>   CDf =  0.01099    CDp =  0.03294

 Side 1 forced transition at x/c =  1.0000   79
 Side 2 forced transition at x/c =  1.0000   83

   3   rms: 0.3289E-04   max: 0.2685E-03   D at    5  2
       a =  0.450      CL = -0.1307
      Cm = -0.0038     CD =  0.04393   =>   CDf =  0.01099    CDp =  0.03294
 plradd ia,ip,cpol           10          78  5.41778430E-02

 Point added to stored polar  1
 Save file unspecified or not available
 Dump file unspecified or not available

.OPERva   c>  
.OPERva   c>  
.OPERva   c>   Calculating wake trajectory ...
 Calculating source influence matrix ...

 Solving BL system ...

 Side 1 forced transition at x/c =  1.0000   79
 Side 2 forced transition at x/c =  1.0000   83
 idif Ue xi dudx           1  9.17928219E-02  2.20155716E-03   41.694500    
 Uenew xinew           2  1.79430423E-03  4.30345535E-05

   1   rms: 0.1489E-01   max: -.1941E+00   D at    3  1   RLX: 0.747
       a =  0.500      CL = -0.1312
      Cm = -0.0034     CD =  0.04389   =>   CDf =  0.01089    CDp =  0.03300

 Side 1 forced transition at x/c =  1.0000   78
 Side 2 forced transition at x/c =  1.0000   84

   2   rms: 0.2186E-01   max: -.3714E+00   T at    2  2
       a =  0.500      CL = -0.1314
      Cm = -0.0033     CD =  0.04387   =>   CDf =  0.01099    CDp =  0.03288

 Side 1 forced transition at x/c =  1.0000   78
 Side 2 forced transition at x/c =  1.0000   84

   3   rms: 0.1875E-02   max: -.2646E-01   D at    4  2
       a =  0.500      CL = -0.1314
      Cm = -0.0033     CD =  0.04387   =>   CDf =  0.01099    CDp =  0.03287

 Side 1 forced transition at x/c =  1.0000   78
 Side 2 forced transition at x/c =  1.0000   84

   4   rms: 0.9636E-05   max: -.1408E-03   D at    4  2
       a =  0.500      CL = -0.1314
      Cm = -0.0033     CD =  0.04387   =>   CDf =  0.01099    CDp =  0.03287
 plradd ia,ip,cpol           11          77  5.41778430E-02

 Point added to stored polar  1
 Save file unspecified or not available
 Dump file unspecified or not available

.OPERva   c>  
.OPERva   c>  
.OPERva   c>   Calculating wake trajectory ...
 Calculating source influence matrix ...

 Solving BL system ...

 Side 1 forced transition at x/c =  1.0000   78
 Side 2 forced transition at x/c =  1.0000   84

   1   rms: 0.1484E-01   max: -.2175E+00   D at    3  2   RLX: 0.740
       a =  0.550      CL = -0.1320
      Cm = -0.0030     CD =  0.04382   =>   CDf =  0.01113    CDp =  0.03269

 Side 1 forced transition at x/c =  1.0000   79
 Side 2 forced transition at x/c =  1.0000   83

   2   rms: 0.2961E-02   max: -.2813E-01   D at    2  2
       a =  0.550      CL = -0.1321
      Cm = -0.0029     CD =  0.04380   =>   CDf =  0.01101    CDp =  0.03279

 Side 1 forced transition at x/c =  1.0000   79
 Side 2 forced transition at x/c =  1.0000   83

   3   rms: 0.5995E-03   max: -.7613E-02   D at    4  1
       a =  0.550      CL = -0.1321
      Cm = -0.0029     CD =  0.04380   =>   CDf =  0.01101    CDp =  0.03278

 Side 1 forced transition at x/c =  1.0000   79
 Side 2 forced transition at x/c =  1.0000   83

   4   rms: 0.8671E-06   max: 0.8911E-05   D at    6  1
       a =  0.550      CL = -0.1321
      Cm = -0.0029     CD =  0.04380   =>   CDf =  0.01101    CDp =  0.03278
 plradd ia,ip,cpol           12          78  5.41778430E-02

 Point added to stored polar  1
 Save file unspecified or not available
 Dump file unspecified or not available

.OPERva   c>  
.OPERva   c>  
.OPERva   c>   Calculating wake trajectory ...
 Calculating source influence matrix ...

 Solving BL system ...

 Side 1 forced transition at x/c =  1.0000   79
 Side 2 forced transition at x/c =  1.0000   83

   1   rms: 0.9558E-02   max: 0.8798E-01   D at    3  2   RLX: 0.732
       a =  0.600      CL = -0.1327
      Cm = -0.0025     CD =  0.04376   =>   CDf =  0.01101    CDp =  0.03275

 Side 1 forced transition at x/c =  1.0000   79
 Side 2 forced transition at x/c =  1.0000   83

   2   rms: 0.2510E-02   max: 0.2334E-01   D at    3  2
       a =  0.600      CL = -0.1329
      Cm = -0.0024     CD =  0.04374   =>   CDf =  0.01102    CDp =  0.03272

 Side 1 forced transition at x/c =  1.0000   79
 Side 2 forced transition at x/c =  1.0000   83

   3   rms: 0.2200E-04   max: -.2014E-03   D at   96  2
       a =  0.600      CL = -0.1329
      Cm = -0.0024     CD =  0.04373   =>   CDf =  0.01102    CDp =  0.03271
 plradd ia,ip,cpol           13          78  5.41778430E-02

 Point added to stored polar  1
 Save file unspecified or not available
 Dump file unspecified or not available

.OPERva   c>  
.OPERva   c>  
.OPERva   c>   Calculating wake trajectory ...
 Calculating source influence matrix ...

 Solving BL system ...

 Side 1 forced transition at x/c =  1.0000   79
 Side 2 forced transition at x/c =  1.0000   83

   1   rms: 0.1478E-01   max: -.1715E+00   D at    3  2   RLX: 0.725
       a =  0.650      CL = -0.1335
      Cm = -0.0021     CD =  0.04369   =>   CDf =  0.01102    CDp =  0.03267

 Side 1 forced transition at x/c =  1.0000   79
 Side 2 forced transition at x/c =  1.0000   83

   2   rms: 0.4733E-02   max: -.5476E-01   D at    3  2
       a =  0.650      CL = -0.1337
      Cm = -0.0019     CD =  0.04366   =>   CDf =  0.01103    CDp =  0.03264

 Side 1 forced transition at x/c =  1.0000   79
 Side 2 forced transition at x/c =  1.0000   83

   3   rms: 0.5150E-04   max: 0.4680E-03   D at    5  2
       a =  0.650      CL = -0.1337
      Cm = -0.0019     CD =  0.04366   =>   CDf =  0.01103    CDp =  0.03263
 plradd ia,ip,cpol           14          78  5.41778430E-02

 Point added to stored polar  1
 Save file unspecified or not available
 Dump file unspecified or not available

.OPERva   c>  
.OPERva   c>  
.OPERva   c>   Calculating wake trajectory ...
 Calculating source influence matrix ...

 Solving BL system ...

 Side 1 forced transition at x/c =  1.0000   79
 Side 2 forced transition at x/c =  1.0000   83

   1   rms: 0.9803E-02   max: -.6555E-01   D at    6  1   RLX: 0.718
       a =  0.700      CL = -0.1342
      Cm = -0.0016     CD =  0.04361   =>   CDf =  0.01103    CDp =  0.03259

 Side 1 forced transition at x/c =  1.0000   79
 Side 2 forced transition at x/c =  1.0000   83

   2   rms: 0.2681E-02   max: -.1828E-01   D at    6  1
       a =  0.700      CL = -0.1344
      Cm = -0.0015     CD =  0.04359   =>   CDf =  0.01103    CDp =  0.03255

 Side 1 forced transition at x/c =  1.0000   79
 Side 2 forced transition at x/c =  1.0000   83

   3   rms: 0.2223E-04   max: -.2147E-03   D at   96  2
       a =  0.700      CL = -0.1344
      Cm = -0.0015     CD =  0.04358   =>   CDf =  0.01104    CDp =  0.03255
 plradd ia,ip,cpol           15          78  5.41778430E-02

 Point added to stored polar  1
 Save file unspecified or not available
 Dump file unspecified or not available

.OPERva   c>  
.OPERva   c>  
.OPERva   c>   Calculating wake trajectory ...
 Calculating source influence matrix ...

 Solving BL system ...

 Side 1 forced transition at x/c =  1.0000   79
 Side 2 forced transition at x/c =  1.0000   83

   1   rms: 0.1588E-01   max: 0.1469E+00   D at    3  1   RLX: 0.711
       a =  0.750      CL = -0.1349
      Cm = -0.0011     CD =  0.04354   =>   CDf =  0.01104    CDp =  0.03251

 Side 1 forced transition at x/c =  1.0000   79
 Side 2 forced transition at x/c =  1.0000   83

   2   rms: 0.3984E-02   max: 0.3591E-01   D at    3  2
       a =  0.750      CL = -0.1351
      Cm = -0.0010     CD =  0.04352   =>   CDf =  0.01104    CDp =  0.03247

 Side 1 forced transition at x/c =  1.0000   79
 Side 2 forced transition at x/c =  1.0000   83

   3   rms: 0.3739E-04   max: -.2514E-03   D at    6  2
       a =  0.750      CL = -0.1351
      Cm = -0.0010     CD =  0.04351   =>   CDf =  0.01105    CDp =  0.03247
 plradd ia,ip,cpol           16          78  5.41778430E-02

 Point added to stored polar  1
 Save file unspecified or not available
 Dump file unspecified or not available

.OPERva   c>  
.OPERva   c>  
.OPERva   c>   Calculating wake trajectory ...
 Calculating source influence matrix ...

 Solving BL system ...

 Side 1 forced transition at x/c =  1.0000   79
 Side 2 forced transition at x/c =  1.0000   83

   1   rms: 0.9659E-02   max: 0.6777E-01   T at    2  1   RLX: 0.704
       a =  0.800      CL = -0.1357
      Cm = -0.0007     CD =  0.04347   =>   CDf =  0.01105    CDp =  0.03242

 Side 1 forced transition at x/c =  1.0000   79
 Side 2 forced transition at x/c =  1.0000   83

   2   rms: 0.3004E-02   max: 0.2266E-01   T at    2  1
       a =  0.800      CL = -0.1359
      Cm = -0.0005     CD =  0.04344   =>   CDf =  0.01105    CDp =  0.03239

 Side 1 forced transition at x/c =  1.0000   79
 Side 2 forced transition at x/c =  1.0000   83

   3   rms: 0.2787E-04   max: -.2111E-03   D at   96  2
       a =  0.800      CL = -0.1359
      Cm = -0.0005     CD =  0.04343   =>   CDf =  0.01105    CDp =  0.03238
 plradd ia,ip,cpol           17          78  5.41778430E-02

 Point added to stored polar  1
 Save file unspecified or not available
 Dump file unspecified or not available

.OPERva   c>  
.OPERva   c>  
.OPERva   c>   Calculating wake trajectory ...
 Calculating source influence matrix ...

 Solving BL system ...

 Side 1 forced transition at x/c =  1.0000   79
 Side 2 forced transition at x/c =  1.0000   83

   1   rms: 0.7107E-02   max: -.4214E-01   D at    4  2   RLX: 0.697
       a =  0.850      CL = -0.1365
      Cm = -0.0002     CD =  0.04339   =>   CDf =  0.01105    CDp =  0.03233

 Side 1 forced transition at x/c =  1.0000   79
 Side 2 forced transition at x/c =  1.0000   83

   2   rms: 0.2154E-02   max: -.1306E-01   D at    4  2
       a =  0.850      CL = -0.1367
      Cm = -0.0001     CD =  0.04336   =>   CDf =  0.01106    CDp =  0.03230

 Side 1 forced transition at x/c =  1.0000   79
 Side 2 forced transition at x/c =  1.0000   83

   3   rms: 0.2695E-04   max: -.2334E-03   D at   96  2
       a =  0.850      CL = -0.1367
      Cm = -0.0001     CD =  0.04335   =>   CDf =  0.01106    CDp =  0.03229
 plradd ia,ip,cpol           18          78  5.41778430E-02

 Point added to stored polar  1
 Save file unspecified or not available
 Dump file unspecified or not available

.OPERva   c>  
.OPERva   c>  
.OPERva   c>   Calculating wake trajectory ...
 Calculating source influence matrix ...

 Solving BL system ...

 Side 1 forced transition at x/c =  1.0000   79
 Side 2 forced transition at x/c =  1.0000   83

   1   rms: 0.1230E-01   max: -.1641E+00   D at    3  2   RLX: 0.690
       a =  0.900      CL = -0.1372
      Cm =  0.0003     CD =  0.04331   =>   CDf =  0.01106    CDp =  0.03225

 Side 1 forced transition at x/c =  1.0000   79
 Side 2 forced transition at x/c =  1.0000   83

   2   rms: 0.4016E-02   max: -.5373E-01   D at    3  2
       a =  0.900      CL = -0.1374
      Cm =  0.0004     CD =  0.04328   =>   CDf =  0.01107    CDp =  0.03221

 Side 1 forced transition at x/c =  1.0000   79
 Side 2 forced transition at x/c =  1.0000   83

   3   rms: 0.4162E-04   max: -.4942E-03   D at    3  2
       a =  0.900      CL = -0.1374
      Cm =  0.0004     CD =  0.04328   =>   CDf =  0.01107    CDp =  0.03221
 plradd ia,ip,cpol           19          78  5.41778430E-02

 Point added to stored polar  1
 Save file unspecified or not available
 Dump file unspecified or not available

.OPERva   c>  
.OPERva   c>  
.OPERva   c>   Calculating wake trajectory ...
 Calculating source influence matrix ...

 Solving BL system ...

 Side 1 forced transition at x/c =  1.0000   79
 Side 2 forced transition at x/c =  1.0000   83

   1   rms: 0.1648E-01   max: 0.1995E+00   D at    3  2   RLX: 0.684
       a =  0.950      CL = -0.1380
      Cm =  0.0007     CD =  0.04323   =>   CDf =  0.01107    CDp =  0.03216

 Side 1 forced transition at x/c =  1.0000   79
 Side 2 forced transition at x/c =  1.0000   83

   2   rms: 0.4727E-02   max: 0.5893E-01   D at    3  2
       a =  0.950      CL = -0.1382
      Cm =  0.0009     CD =  0.04320   =>   CDf =  0.01108    CDp =  0.03212

 Side 1 forced transition at x/c =  1.0000   79
 Side 2 forced transition at x/c =  1.0000   83

   3   rms: 0.5067E-04   max: -.4515E-03   D at    3  2
       a =  0.950      CL = -0.1382
      Cm =  0.0009     CD =  0.04319   =>   CDf =  0.01108    CDp =  0.03212
 plradd ia,ip,cpol           20          78  5.41778430E-02

 Point added to stored polar  1
 Save file unspecified or not available
 Dump file unspecified or not available

.OPERva   c>  
.OPERva   c>  
.OPERva   c>   Calculating wake trajectory ...
 Calculating source influence matrix ...

 Solving BL system ...

 Side 1 forced transition at x/c =  1.0000   79
 Side 2 forced transition at x/c =  1.0000   83

   1   rms: 0.1321E-01   max: -.1201E+00   D at    3  2   RLX: 0.677
       a =  1.000      CL = -0.1387
      Cm =  0.0012     CD =  0.04315   =>   CDf =  0.01108    CDp =  0.03207

 Side 1 forced transition at x/c =  1.0000   79
 Side 2 forced transition at x/c =  1.0000   83

   2   rms: 0.4637E-02   max: -.4419E-01   D at    3  2
       a =  1.000      CL = -0.1389
      Cm =  0.0013     CD =  0.04311   =>   CDf =  0.01108    CDp =  0.03203

 Side 1 forced transition at x/c =  1.0000   79
 Side 2 forced transition at x/c =  1.0000   83

   3   rms: 0.5385E-04   max: -.4076E-03   D at    3  2
       a =  1.000      CL = -0.1389
      Cm =  0.0013     CD =  0.04311   =>   CDf =  0.01109    CDp =  0.03202
 plradd ia,ip,cpol           21          78  5.41778430E-02

 Point added to stored polar  1
 Save file unspecified or not available
 Dump file unspecified or not available

.OPERva   c>  
.OPERva   c>  
.OPERva   c>   Calculating wake trajectory ...
 Calculating source influence matrix ...

 Solving BL system ...

 Side 1 forced transition at x/c =  1.0000   79
 Side 2 forced transition at x/c =  1.0000   83

   1   rms: 0.1632E-01   max: 0.1331E+00   D at    3  2   RLX: 0.671
       a =  1.050      CL = -0.1395
      Cm =  0.0016     CD =  0.04306   =>   CDf =  0.01109    CDp =  0.03198

 Side 1 forced transition at x/c =  1.0000   79
 Side 2 forced transition at x/c =  1.0000   83

   2   rms: 0.4804E-02   max: 0.3934E-01   D at    3  2
       a =  1.050      CL = -0.1397
      Cm =  0.0018     CD =  0.04303   =>   CDf =  0.01109    CDp =  0.03194

 Side 1 forced transition at x/c =  1.0000   79
 Side 2 forced transition at x/c =  1.0000   83

   3   rms: 0.4703E-04   max: 0.3360E-03   D at    7  2
       a =  1.050      CL = -0.1397
      Cm =  0.0018     CD =  0.04303   =>   CDf =  0.01109    CDp =  0.03193
 plradd ia,ip,cpol           22          78  5.41778430E-02

 Point added to stored polar  1
 Save file unspecified or not available
 Dump file unspecified or not available

.OPERva   c>  
.OPERva   c>  
.OPERva   c>   Calculating wake trajectory ...
 Calculating source influence matrix ...

 Solving BL system ...

 Side 1 forced transition at x/c =  1.0000   79
 Side 2 forced transition at x/c =  1.0000   83

   1   rms: 0.1222E-01   max: -.1275E+00   D at    3  2   RLX: 0.665
       a =  1.100      CL = -0.1402
      Cm =  0.0021     CD =  0.04298   =>   CDf =  0.01109    CDp =  0.03189

 Side 1 forced transition at x/c =  1.0000   79
 Side 2 forced transition at x/c =  1.0000   83

   2   rms: 0.4250E-02   max: -.4546E-01   D at    3  2
       a =  1.100      CL = -0.1404
      Cm =  0.0022     CD =  0.04295   =>   CDf =  0.01110    CDp =  0.03185

 Side 1 forced transition at x/c =  1.0000   79
 Side 2 forced transition at x/c =  1.0000   83

   3   rms: 0.4184E-04   max: -.4001E-03   D at    3  2
       a =  1.100      CL = -0.1403
      Cm =  0.0022     CD =  0.04295   =>   CDf =  0.01110    CDp =  0.03184
 plradd ia,ip,cpol           23          78  5.41778430E-02

 Point added to stored polar  1
 Save file unspecified or not available
 Dump file unspecified or not available

.OPERva   c>  
.OPERva   c>  
.OPERva   c>   Calculating wake trajectory ...
 Calculating source influence matrix ...

 Solving BL system ...

 Side 1 forced transition at x/c =  1.0000   79
 Side 2 forced transition at x/c =  1.0000   83

   1   rms: 0.1139E-01   max: -.1177E+00   D at    3  1   RLX: 0.659
       a =  1.150      CL = -0.1408
      Cm =  0.0025     CD =  0.04290   =>   CDf =  0.01110    CDp =  0.03180

 Side 1 forced transition at x/c =  1.0000   79
 Side 2 forced transition at x/c =  1.0000   83

   2   rms: 0.4018E-02   max: -.4163E-01   D at    3  1
       a =  1.150      CL = -0.1410
      Cm =  0.0027     CD =  0.04287   =>   CDf =  0.01111    CDp =  0.03176

 Side 1 forced transition at x/c =  1.0000   79
 Side 2 forced transition at x/c =  1.0000   83

   3   rms: 0.3734E-04   max: -.2306E-03   D at   97  2
       a =  1.150      CL = -0.1410
      Cm =  0.0027     CD =  0.04286   =>   CDf =  0.01111    CDp =  0.03175
 plradd ia,ip,cpol           24          78  5.41778430E-02

 Point added to stored polar  1
 Save file unspecified or not available
 Dump file unspecified or not available

.OPERva   c>  
.OPERva   c>  
.OPERva   c>   Calculating wake trajectory ...
 Calculating source influence matrix ...

 Solving BL system ...

 Side 1 forced transition at x/c =  1.0000   79
 Side 2 forced transition at x/c =  1.0000   83

   1   rms: 0.1197E-01   max: 0.1086E+00   D at    3  2   RLX: 0.653
       a =  1.200      CL = -0.1414
      Cm =  0.0030     CD =  0.04282   =>   CDf =  0.01111    CDp =  0.03171

 Side 1 forced transition at x/c =  1.0000   79
 Side 2 forced transition at x/c =  1.0000   83

   2   rms: 0.4056E-02   max: 0.3693E-01   D at    3  2
       a =  1.200      CL = -0.1416
      Cm =  0.0031     CD =  0.04278   =>   CDf =  0.01112    CDp =  0.03167

 Side 1 forced transition at x/c =  1.0000   79
 Side 2 forced transition at x/c =  1.0000   83

   3   rms: 0.3641E-04   max: -.2347E-03   D at   97  2
       a =  1.200      CL = -0.1416
      Cm =  0.0031     CD =  0.04278   =>   CDf =  0.01112    CDp =  0.03166
 plradd ia,ip,cpol           25          78  5.41778430E-02

 Point added to stored polar  1
 Save file unspecified or not available
 Dump file unspecified or not available

.OPERva   c>  
.OPERva   c>  
.OPERva   c>   Calculating wake trajectory ...
 Calculating source influence matrix ...

 Solving BL system ...

 Side 1 forced transition at x/c =  1.0000   79
 Side 2 forced transition at x/c =  1.0000   83

   1   rms: 0.9050E-02   max: -.9788E-01   D at    3  2   RLX: 0.648
       a =  1.250      CL = -0.1420
      Cm =  0.0034     CD =  0.04274   =>   CDf =  0.01112    CDp =  0.03162

 Side 1 forced transition at x/c =  1.0000   79
 Side 2 forced transition at x/c =  1.0000   83

   2   rms: 0.3287E-02   max: -.3653E-01   D at    3  2
       a =  1.250      CL = -0.1422
      Cm =  0.0036     CD =  0.04270   =>   CDf =  0.01113    CDp =  0.03158

 Side 1 forced transition at x/c =  1.0000   79
 Side 2 forced transition at x/c =  1.0000   83

   3   rms: 0.3574E-04   max: -.3083E-03   D at    3  2
       a =  1.250      CL = -0.1422
      Cm =  0.0036     CD =  0.04270   =>   CDf =  0.01113    CDp =  0.03157
 plradd ia,ip,cpol           26          78  5.41778430E-02

 Point added to stored polar  1
 Save file unspecified or not available
 Dump file unspecified or not available

.OPERva   c>  
.OPERva   c>  
.OPERva   c>   Calculating wake trajectory ...
 Calculating source influence matrix ...

 Solving BL system ...

 Side 1 forced transition at x/c =  1.0000   79
 Side 2 forced transition at x/c =  1.0000   83

   1   rms: 0.1067E-01   max: 0.7922E-01   D at    3  1   RLX: 0.642
       a =  1.300      CL = -0.1426
      Cm =  0.0038     CD =  0.04265   =>   CDf =  0.01113    CDp =  0.03152

 Side 1 forced transition at x/c =  1.0000   79
 Side 2 forced transition at x/c =  1.0000   83

   2   rms: 0.3649E-02   max: 0.2593E-01   D at    3  1
       a =  1.300      CL = -0.1427
      Cm =  0.0040     CD =  0.04262   =>   CDf =  0.01113    CDp =  0.03148

 Side 1 forced transition at x/c =  1.0000   79
 Side 2 forced transition at x/c =  1.0000   83

   3   rms: 0.3833E-04   max: 0.2733E-03   C at   83  2
       a =  1.300      CL = -0.1427
      Cm =  0.0040     CD =  0.04261   =>   CDf =  0.01114    CDp =  0.03148
 plradd ia,ip,cpol           27          78  5.41778430E-02

 Point added to stored polar  1
 Save file unspecified or not available
 Dump file unspecified or not available

.OPERva   c>  
.OPERva   c>  
.OPERva   c>   Calculating wake trajectory ...
 Calculating source influence matrix ...

 Solving BL system ...

 Side 1 forced transition at x/c =  1.0000   79
 Side 2 forced transition at x/c =  1.0000   83

   1   rms: 0.1248E-01   max: -.1122E+00   D at    3  2   RLX: 0.637
       a =  1.350      CL = -0.1431
      Cm =  0.0043     CD =  0.04257   =>   CDf =  0.01114    CDp =  0.03143

 Side 1 forced transition at x/c =  1.0000   79
 Side 2 forced transition at x/c =  1.0000   83

   2   rms: 0.4914E-02   max: -.4616E-01   D at    3  2
       a =  1.350      CL = -0.1432
      Cm =  0.0044     CD =  0.04254   =>   CDf =  0.01114    CDp =  0.03139

 Side 1 forced transition at x/c =  1.0000   79
 Side 2 forced transition at x/c =  1.0000   83

   3   rms: 0.6065E-04   max: -.4531E-03   D at    3  2
       a =  1.350      CL = -0.1432
      Cm =  0.0044     CD =  0.04253   =>   CDf =  0.01115    CDp =  0.03139
 plradd ia,ip,cpol           28          78  5.41778430E-02

 Point added to stored polar  1
 Save file unspecified or not available
 Dump file unspecified or not available

.OPERva   c>  
.OPERva   c>  
.OPERva   c>   Calculating wake trajectory ...
 Calculating source influence matrix ...

 Solving BL system ...

 Side 1 forced transition at x/c =  1.0000   79
 Side 2 forced transition at x/c =  1.0000   83

   1   rms: 0.8581E-02   max: 0.6979E-01   D at    4  1   RLX: 0.631
       a =  1.400      CL = -0.1435
      Cm =  0.0047     CD =  0.04249   =>   CDf =  0.01115    CDp =  0.03135

 Side 1 forced transition at x/c =  1.0000   79
 Side 2 forced transition at x/c =  1.0000   83

   2   rms: 0.3138E-02   max: 0.2452E-01   D at    4  1
       a =  1.400      CL = -0.1437
      Cm =  0.0048     CD =  0.04246   =>   CDf =  0.01115    CDp =  0.03131

 Side 1 forced transition at x/c =  1.0000   79
 Side 2 forced transition at x/c =  1.0000   83

   3   rms: 0.5198E-04   max: 0.4600E-03   C at   83  2
       a =  1.400      CL = -0.1436
      Cm =  0.0048     CD =  0.04246   =>   CDf =  0.01116    CDp =  0.03130
 plradd ia,ip,cpol           29          78  5.41778430E-02

 Point added to stored polar  1
 Save file unspecified or not available
 Dump file unspecified or not available

.OPERva   c>  
.OPERva   c>  
.OPERva   c>   Calculating wake trajectory ...
 Calculating source influence matrix ...

 Solving BL system ...

 Side 1 forced transition at x/c =  1.0000   79
 Side 2 forced transition at x/c =  1.0000   83

   1   rms: 0.1356E-01   max: 0.1605E+00   D at    3  2   RLX: 0.626
       a =  1.450      CL = -0.1439
      Cm =  0.0051     CD =  0.04242   =>   CDf =  0.01116    CDp =  0.03126

 Side 1 forced transition at x/c =  1.0000   79
 Side 2 forced transition at x/c =  1.0000   83

   2   rms: 0.4989E-02   max: 0.6033E-01   D at    3  2
       a =  1.450      CL = -0.1439
      Cm =  0.0052     CD =  0.04239   =>   CDf =  0.01116    CDp =  0.03122

 Side 1 forced transition at x/c =  1.0000   79
 Side 2 forced transition at x/c =  1.0000   83

   3   rms: 0.5877E-04   max: 0.5674E-03   C at   83  2
       a =  1.450      CL = -0.1439
      Cm =  0.0052     CD =  0.04238   =>   CDf =  0.01117    CDp =  0.03121
 plradd ia,ip,cpol           30          78  5.41778430E-02

 Point added to stored polar  1
 Save file unspecified or not available
 Dump file unspecified or not available

.OPERva   c>  
.OPERva   c>  
.OPERva   c>   Calculating wake trajectory ...
 Calculating source influence matrix ...

 Solving BL system ...

 Side 1 forced transition at x/c =  1.0000   79
 Side 2 forced transition at x/c =  1.0000   83

   1   rms: 0.1521E-01   max: -.2175E+00   D at    3  2   RLX: 0.621
       a =  1.500      CL = -0.1440
      Cm =  0.0054     CD =  0.04235   =>   CDf =  0.01117    CDp =  0.03118

 Side 1 forced transition at x/c =  1.0000   79
 Side 2 forced transition at x/c =  1.0000   83

   2   rms: 0.5933E-02   max: -.8345E-01   T at    3  2
       a =  1.500      CL = -0.1440
      Cm =  0.0055     CD =  0.04233   =>   CDf =  0.01118    CDp =  0.03116

 Side 1 forced transition at x/c =  1.0000   79
 Side 2 forced transition at x/c =  1.0000   83

   3   rms: 0.1341E-03   max: -.1415E-02   T at    3  2
       a =  1.500      CL = -0.1439
      Cm =  0.0055     CD =  0.04233   =>   CDf =  0.01118    CDp =  0.03115

 Side 1 forced transition at x/c =  1.0000   79
 Side 2 forced transition at x/c =  1.0000   83

   4   rms: 0.9155E-06   max: -.5168E-05   C at   83  2
       a =  1.500      CL = -0.1439
      Cm =  0.0055     CD =  0.04233   =>   CDf =  0.01118    CDp =  0.03115
 plradd ia,ip,cpol           31          78  5.41778430E-02

 Point added to stored polar  1
 Save file unspecified or not available
 Dump file unspecified or not available

.OPERva   c>  
.OPERva   c>  
.OPERva   c>   Calculating wake trajectory ...
 Calculating source influence matrix ...

 Solving BL system ...

 Side 1 forced transition at x/c =  1.0000   79
 Side 2 forced transition at x/c =  1.0000   83

   1   rms: 0.1303E-01   max: 0.1629E+00   T at    3  2   RLX: 0.617
       a =  1.550      CL = -0.1439
      Cm =  0.0057     CD =  0.04230   =>   CDf =  0.01118    CDp =  0.03112

 Side 1 forced transition at x/c =  1.0000   79
 Side 2 forced transition at x/c =  1.0000   83

   2   rms: 0.4716E-02   max: 0.5868E-01   D at    3  2
       a =  1.550      CL = -0.1438
      Cm =  0.0059     CD =  0.04228   =>   CDf =  0.01119    CDp =  0.03109

 Side 1 forced transition at x/c =  1.0000   79
 Side 2 forced transition at x/c =  1.0000   83

   3   rms: 0.7696E-04   max: 0.7679E-03   C at   83  2
       a =  1.550      CL = -0.1438
      Cm =  0.0058     CD =  0.04227   =>   CDf =  0.01119    CDp =  0.03108
 plradd ia,ip,cpol           32          78  5.41778430E-02

 Point added to stored polar  1
 Save file unspecified or not available
 Dump file unspecified or not available

.OPERva   c>  
.OPERva   c>  
.OPERva   c>   Calculating wake trajectory ...
 Calculating source influence matrix ...

 Solving BL system ...

 Side 1 forced transition at x/c =  1.0000   79
 Side 2 forced transition at x/c =  1.0000   83

   1   rms: 0.8762E-02   max: -.8313E-01   D at    4  1   RLX: 0.612
       a =  1.600      CL = -0.1437
      Cm =  0.0060     CD =  0.04226   =>   CDf =  0.01119    CDp =  0.03106

 Side 1 forced transition at x/c =  1.0000   79
 Side 2 forced transition at x/c =  1.0000   83

   2   rms: 0.3379E-02   max: -.3193E-01   D at    4  1
       a =  1.600      CL = -0.1434
      Cm =  0.0061     CD =  0.04224   =>   CDf =  0.01120    CDp =  0.03104

 Side 1 forced transition at x/c =  1.0000   79
 Side 2 forced transition at x/c =  1.0000   83

   3   rms: 0.6396E-04   max: 0.7224E-03   C at   83  2
       a =  1.600      CL = -0.1434
      Cm =  0.0061     CD =  0.04224   =>   CDf =  0.01121    CDp =  0.03103
 plradd ia,ip,cpol           33          78  5.41778430E-02

 Point added to stored polar  1
 Save file unspecified or not available
 Dump file unspecified or not available

.OPERva   c>  
.OPERva   c>  
.OPERva   c>   Calculating wake trajectory ...
 Calculating source influence matrix ...

 Solving BL system ...

 Side 1 forced transition at x/c =  1.0000   79
 Side 2 forced transition at x/c =  1.0000   83

   1   rms: 0.1231E-01   max: -.1519E+00   D at    3  1   RLX: 0.608
       a =  1.650      CL = -0.1431
      Cm =  0.0063     CD =  0.04223   =>   CDf =  0.01121    CDp =  0.03102

 Side 1 forced transition at x/c =  1.0000   79
 Side 2 forced transition at x/c =  1.0000   83

   2   rms: 0.4953E-02   max: -.5974E-01   D at    3  1
       a =  1.650      CL = -0.1427
      Cm =  0.0063     CD =  0.04222   =>   CDf =  0.01122    CDp =  0.03100

 Side 1 forced transition at x/c =  1.0000   79
 Side 2 forced transition at x/c =  1.0000   83

   3   rms: 0.7179E-04   max: 0.7470E-03   C at   83  2
       a =  1.650      CL = -0.1427
      Cm =  0.0063     CD =  0.04221   =>   CDf =  0.01122    CDp =  0.03099
 plradd ia,ip,cpol           34          78  5.41778430E-02

 Point added to stored polar  1
 Save file unspecified or not available
 Dump file unspecified or not available

.OPERva   c>  
.OPERva   c>  
.OPERva   c>   Calculating wake trajectory ...
 Calculating source influence matrix ...

 Solving BL system ...

 Side 1 forced transition at x/c =  1.0000   79
 Side 2 forced transition at x/c =  1.0000   83

   1   rms: 0.1143E-01   max: 0.1077E+00   D at    4  2   RLX: 0.605
       a =  1.700      CL = -0.1423
      Cm =  0.0064     CD =  0.04221   =>   CDf =  0.01122    CDp =  0.03099

 Side 1 forced transition at x/c =  1.0000   79
 Side 2 forced transition at x/c =  1.0000   83

   2   rms: 0.4379E-02   max: 0.4243E-01   D at    4  2
       a =  1.700      CL = -0.1418
      Cm =  0.0065     CD =  0.04220   =>   CDf =  0.01123    CDp =  0.03097

 Side 1 forced transition at x/c =  1.0000   79
 Side 2 forced transition at x/c =  1.0000   83

   3   rms: 0.6203E-04   max: 0.7128E-03   C at   83  2
       a =  1.700      CL = -0.1418
      Cm =  0.0065     CD =  0.04220   =>   CDf =  0.01124    CDp =  0.03096
 plradd ia,ip,cpol           35          78  6.28640726E-02

 Point added to stored polar  1
 Save file unspecified or not available
 Dump file unspecified or not available

.OPERva   c>  
.OPERva   c>  
.OPERva   c>   Calculating wake trajectory ...
 Calculating source influence matrix ...

 Solving BL system ...

 Side 1 forced transition at x/c =  1.0000   79
 Side 2 forced transition at x/c =  1.0000   83

   1   rms: 0.1351E-01   max: -.1692E+00   T at    3  2   RLX: 0.601
       a =  1.750      CL = -0.1412
      Cm =  0.0066     CD =  0.04221   =>   CDf =  0.01135    CDp =  0.03086

 Side 1 forced transition at x/c =  1.0000   80
 Side 2 forced transition at x/c =  1.0000   82

   2   rms: 0.8712E-01   max: -.1576E+01   T at    2  1   RLX: 0.317
       a =  1.750      CL = -0.1410
      Cm =  0.0066     CD =  0.04220   =>   CDf =  0.01125    CDp =  0.03095

 Side 1 forced transition at x/c =  1.0000   80
 Side 2 forced transition at x/c =  1.0000   82

   3   rms: 0.6923E-02   max: 0.1075E+00   D at    3  1
       a =  1.750      CL = -0.1406
      Cm =  0.0066     CD =  0.04221   =>   CDf =  0.01125    CDp =  0.03095

 Side 1 forced transition at x/c =  1.0000   80
 Side 2 forced transition at x/c =  1.0000   82

   4   rms: 0.1011E-02   max: -.1331E-01   D at    4  1
       a =  1.750      CL = -0.1406
      Cm =  0.0066     CD =  0.04220   =>   CDf =  0.01126    CDp =  0.03094

 Side 1 forced transition at x/c =  1.0000   80
 Side 2 forced transition at x/c =  1.0000   82

   5   rms: 0.1809E-05   max: -.1908E-04   D at    3  1
       a =  1.750      CL = -0.1406
      Cm =  0.0066     CD =  0.04220   =>   CDf =  0.01126    CDp =  0.03094
 plradd ia,ip,cpol           36          79  6.28640726E-02

 Point added to stored polar  1
 Save file unspecified or not available
 Dump file unspecified or not available

.OPERva   c>  
.OPERva   c>  
.OPERva   c>   Calculating wake trajectory ...
 Calculating source influence matrix ...

 Solving BL system ...

 Side 1 forced transition at x/c =  1.0000   80
 Side 2 forced transition at x/c =  1.0000   82
 idif Ue xi dudx           1  0.13699082      2.09677219E-03   65.334145    
 Uenew xinew           2  1.72903296E-03  2.64644623E-05

   1   rms: 0.1659E-01   max: -.2348E+00   D at    3  1   RLX: 0.598
       a =  1.800      CL = -0.1399
      Cm =  0.0067     CD =  0.04222   =>   CDf =  0.01119    CDp =  0.03103

 Side 1 forced transition at x/c =  1.0000   79
 Side 2 forced transition at x/c =  1.0000   83

   2   rms: 0.8136E-01   max: 0.1482E+01   T at    2  2
       a =  1.800      CL = -0.1392
      Cm =  0.0067     CD =  0.04223   =>   CDf =  0.01126    CDp =  0.03097

 Side 1 forced transition at x/c =  1.0000   79
 Side 2 forced transition at x/c =  1.0000   83

   3   rms: 0.2396E-01   max: -.3107E+00   D at    3  2
       a =  1.800      CL = -0.1392
      Cm =  0.0067     CD =  0.04222   =>   CDf =  0.01127    CDp =  0.03095

 Side 1 forced transition at x/c =  1.0000   79
 Side 2 forced transition at x/c =  1.0000   83

   4   rms: 0.1043E-02   max: -.9773E-02   D at    8  2
       a =  1.800      CL = -0.1392
      Cm =  0.0067     CD =  0.04222   =>   CDf =  0.01127    CDp =  0.03095

 Side 1 forced transition at x/c =  1.0000   79
 Side 2 forced transition at x/c =  1.0000   83

   5   rms: 0.2002E-05   max: -.8071E-05   C at   83  2
       a =  1.800      CL = -0.1392
      Cm =  0.0067     CD =  0.04222   =>   CDf =  0.01127    CDp =  0.03095
 plradd ia,ip,cpol           37          78  6.28640726E-02

 Point added to stored polar  1
 Save file unspecified or not available
 Dump file unspecified or not available

.OPERva   c>  
.OPERva   c>  
.OPERva   c>   Calculating wake trajectory ...
 Calculating source influence matrix ...

 Solving BL system ...

 Side 1 forced transition at x/c =  1.0000   79
 Side 2 forced transition at x/c =  1.0000   83

   1   rms: 0.9372E-02   max: 0.5639E-01   D at    2  2   RLX: 0.594
       a =  1.850      CL = -0.1383
      Cm =  0.0068     CD =  0.04225   =>   CDf =  0.01127    CDp =  0.03098

 Side 1 forced transition at x/c =  1.0000   79
 Side 2 forced transition at x/c =  1.0000   83

   2   rms: 0.3566E-02   max: 0.2766E-01   D at    2  1
       a =  1.850      CL = -0.1376
      Cm =  0.0068     CD =  0.04226   =>   CDf =  0.01138    CDp =  0.03088

 Side 1 forced transition at x/c =  1.0000   80
 Side 2 forced transition at x/c =  1.0000   82

   3   rms: 0.2026E-02   max: -.3205E-01   T at    2  1
       a =  1.850      CL = -0.1376
      Cm =  0.0068     CD =  0.04226   =>   CDf =  0.01129    CDp =  0.03097

 Side 1 forced transition at x/c =  1.0000   80
 Side 2 forced transition at x/c =  1.0000   82

   4   rms: 0.1508E-02   max: 0.2014E-01   D at    4  1
       a =  1.850      CL = -0.1376
      Cm =  0.0068     CD =  0.04226   =>   CDf =  0.01129    CDp =  0.03097

 Side 1 forced transition at x/c =  1.0000   80
 Side 2 forced transition at x/c =  1.0000   82

   5   rms: 0.2585E-05   max: 0.3824E-04   D at    6  1
       a =  1.850      CL = -0.1376
      Cm =  0.0068     CD =  0.04226   =>   CDf =  0.01129    CDp =  0.03097
 plradd ia,ip,cpol           38          79  6.28640726E-02

 Point added to stored polar  1
 Save file unspecified or not available
 Dump file unspecified or not available

.OPERva   c>  
.OPERva   c>  
.OPERva   c>   Calculating wake trajectory ...
 Calculating source influence matrix ...

 Solving BL system ...

 Side 1 forced transition at x/c =  1.0000   80
 Side 2 forced transition at x/c =  1.0000   82

   1   rms: 0.1025E-01   max: 0.8675E-01   D at    3  2   RLX: 0.591
       a =  1.900      CL = -0.1365
      Cm =  0.0068     CD =  0.04228   =>   CDf =  0.01129    CDp =  0.03100

 Side 1 forced transition at x/c =  1.0000   80
 Side 2 forced transition at x/c =  1.0000   82

   2   rms: 0.4069E-02   max: 0.3542E-01   D at    3  2
       a =  1.900      CL = -0.1357
      Cm =  0.0068     CD =  0.04230   =>   CDf =  0.01130    CDp =  0.03100

 Side 1 forced transition at x/c =  1.0000   80
 Side 2 forced transition at x/c =  1.0000   82

   3   rms: 0.5920E-04   max: 0.7047E-03   C at   82  2
       a =  1.900      CL = -0.1357
      Cm =  0.0068     CD =  0.04230   =>   CDf =  0.01131    CDp =  0.03099
 plradd ia,ip,cpol           39          79  6.28640726E-02

 Point added to stored polar  1
 Save file unspecified or not available
 Dump file unspecified or not available

.OPERva   c>  
.OPERva   c>  
.OPERva   c>   Calculating wake trajectory ...
 Calculating source influence matrix ...

 Solving BL system ...

 Side 1 forced transition at x/c =  1.0000   80
 Side 2 forced transition at x/c =  1.0000   82

   1   rms: 0.1365E-01   max: -.1452E+00   D at    3  1   RLX: 0.589
       a =  1.950      CL = -0.1345
      Cm =  0.0068     CD =  0.04234   =>   CDf =  0.01131    CDp =  0.03103

 Side 1 forced transition at x/c =  1.0000   80
 Side 2 forced transition at x/c =  1.0000   82

   2   rms: 0.5641E-02   max: -.5764E-01   D at    3  1
       a =  1.950      CL = -0.1337
      Cm =  0.0067     CD =  0.04236   =>   CDf =  0.01132    CDp =  0.03104

 Side 1 forced transition at x/c =  1.0000   80
 Side 2 forced transition at x/c =  1.0000   82

   3   rms: 0.7277E-04   max: 0.7786E-03   C at   82  2
       a =  1.950      CL = -0.1336
      Cm =  0.0067     CD =  0.04236   =>   CDf =  0.01133    CDp =  0.03103
 plradd ia,ip,cpol           40          79  5.41778430E-02

 Point added to stored polar  1
 Save file unspecified or not available
 Dump file unspecified or not available

.OPERva   c>  
.OPERva   c>  
.OPERva   c>   Calculating wake trajectory ...
 Calculating source influence matrix ...

 Solving BL system ...

 Side 1 forced transition at x/c =  1.0000   80
 Side 2 forced transition at x/c =  1.0000   82

   1   rms: 0.1255E-01   max: -.1515E+00   D at    4  1   RLX: 0.586
       a =  2.000      CL = -0.1324
      Cm =  0.0067     CD =  0.04240   =>   CDf =  0.01133    CDp =  0.03108

 Side 1 forced transition at x/c =  1.0000   80
 Side 2 forced transition at x/c =  1.0000   82

   2   rms: 0.5184E-02   max: -.6170E-01   D at    4  1
       a =  2.000      CL = -0.1313
      Cm =  0.0067     CD =  0.04243   =>   CDf =  0.01134    CDp =  0.03109

 Side 1 forced transition at x/c =  1.0000   80
 Side 2 forced transition at x/c =  1.0000   82

   3   rms: 0.7800E-04   max: -.7315E-03   D at    8  1
       a =  2.000      CL = -0.1313
      Cm =  0.0067     CD =  0.04242   =>   CDf =  0.01134    CDp =  0.03108
 plradd ia,ip,cpol           41          79  6.28640726E-02

 Point added to stored polar  1
 Save file unspecified or not available
 Dump file unspecified or not available

.OPERva   c>  
.OPERva   c>  
.OPERva   c>   Calculating wake trajectory ...
 Calculating source influence matrix ...

 Solving BL system ...

 Side 1 forced transition at x/c =  1.0000   80
 Side 2 forced transition at x/c =  1.0000   82

   1   rms: 0.1289E-01   max: 0.1299E+00   D at    4  1   RLX: 0.583
       a =  2.050      CL = -0.1300
      Cm =  0.0066     CD =  0.04248   =>   CDf =  0.01134    CDp =  0.03113

 Side 1 forced transition at x/c =  1.0000   80
 Side 2 forced transition at x/c =  1.0000   82

   2   rms: 0.5284E-02   max: 0.5237E-01   D at    4  1
       a =  2.050      CL = -0.1289
      Cm =  0.0066     CD =  0.04251   =>   CDf =  0.01135    CDp =  0.03116

 Side 1 forced transition at x/c =  1.0000   80
 Side 2 forced transition at x/c =  1.0000   82

   3   rms: 0.6519E-04   max: 0.7355E-03   C at   82  2
       a =  2.050      CL = -0.1289
      Cm =  0.0066     CD =  0.04251   =>   CDf =  0.01136    CDp =  0.03114
 plradd ia,ip,cpol           42          79  6.28640726E-02

 Point added to stored polar  1
 Save file unspecified or not available
 Dump file unspecified or not available

.OPERva   c>  
.OPERva   c>  
.OPERva   c>   Calculating wake trajectory ...
 Calculating source influence matrix ...

 Solving BL system ...

 Side 1 forced transition at x/c =  1.0000   80
 Side 2 forced transition at x/c =  1.0000   82

   1   rms: 0.1218E-01   max: 0.1107E+00   D at    3  1   RLX: 0.581
       a =  2.100      CL = -0.1275
      Cm =  0.0065     CD =  0.04257   =>   CDf =  0.01136    CDp =  0.03121

 Side 1 forced transition at x/c =  1.0000   80
 Side 2 forced transition at x/c =  1.0000   82

   2   rms: 0.4801E-02   max: 0.4030E-01   D at    3  1
       a =  2.100      CL = -0.1263
      Cm =  0.0065     CD =  0.04261   =>   CDf =  0.01137    CDp =  0.03124

 Side 1 forced transition at x/c =  1.0000   80
 Side 2 forced transition at x/c =  1.0000   82

   3   rms: 0.7077E-04   max: 0.6653E-03   C at   82  2
       a =  2.100      CL = -0.1263
      Cm =  0.0065     CD =  0.04260   =>   CDf =  0.01138    CDp =  0.03122
 plradd ia,ip,cpol           43          79  6.28640726E-02

 Point added to stored polar  1
 Save file unspecified or not available
 Dump file unspecified or not available

.OPERva   c>  
.OPERva   c>  
.OPERva   c>   Calculating wake trajectory ...
 Calculating source influence matrix ...

 Solving BL system ...

 Side 1 forced transition at x/c =  1.0000   80
 Side 2 forced transition at x/c =  1.0000   82

   1   rms: 0.1375E-01   max: -.1568E+00   D at    3  2   RLX: 0.579
       a =  2.150      CL = -0.1248
      Cm =  0.0064     CD =  0.04267   =>   CDf =  0.01138    CDp =  0.03129

 Side 1 forced transition at x/c =  1.0000   80
 Side 2 forced transition at x/c =  1.0000   82

   2   rms: 0.6095E-02   max: -.7023E-01   D at    3  2
       a =  2.150      CL = -0.1236
      Cm =  0.0063     CD =  0.04271   =>   CDf =  0.01139    CDp =  0.03132

 Side 1 forced transition at x/c =  1.0000   80
 Side 2 forced transition at x/c =  1.0000   82

   3   rms: 0.8266E-04   max: -.7886E-03   D at    3  2
       a =  2.150      CL = -0.1236
      Cm =  0.0063     CD =  0.04270   =>   CDf =  0.01140    CDp =  0.03131
 plradd ia,ip,cpol           44          79  6.28640726E-02

 Point added to stored polar  1
 Save file unspecified or not available
 Dump file unspecified or not available

.OPERva   c>  
.OPERva   c>  
.OPERva   c>   Calculating wake trajectory ...
 Calculating source influence matrix ...

 Solving BL system ...

 Side 1 forced transition at x/c =  1.0000   80
 Side 2 forced transition at x/c =  1.0000   82

   1   rms: 0.8902E-02   max: -.7240E-01   D at    4  2   RLX: 0.577
       a =  2.200      CL = -0.1220
      Cm =  0.0063     CD =  0.04278   =>   CDf =  0.01140    CDp =  0.03138

 Side 1 forced transition at x/c =  1.0000   80
 Side 2 forced transition at x/c =  1.0000   82

   2   rms: 0.3829E-02   max: -.3205E-01   D at    4  2
       a =  2.200      CL = -0.1207
      Cm =  0.0062     CD =  0.04283   =>   CDf =  0.01141    CDp =  0.03142

 Side 1 forced transition at x/c =  1.0000   80
 Side 2 forced transition at x/c =  1.0000   82

   3   rms: 0.5297E-04   max: 0.5436E-03   C at   82  2
       a =  2.200      CL = -0.1207
      Cm =  0.0062     CD =  0.04282   =>   CDf =  0.01142    CDp =  0.03140
 plradd ia,ip,cpol           45          79  6.28640726E-02

 Point added to stored polar  1
 Save file unspecified or not available
 Dump file unspecified or not available

.OPERva   c>  
.OPERva   c>  
.OPERva   c>   Calculating wake trajectory ...
 Calculating source influence matrix ...

 Solving BL system ...

 Side 1 forced transition at x/c =  1.0000   80
 Side 2 forced transition at x/c =  1.0000   82

   1   rms: 0.8133E-02   max: -.7089E-01   D at    4  1   RLX: 0.574
       a =  2.250      CL = -0.1190
      Cm =  0.0061     CD =  0.04290   =>   CDf =  0.01142    CDp =  0.03148

 Side 1 forced transition at x/c =  1.0000   80
 Side 2 forced transition at x/c =  1.0000   82

   2   rms: 0.3441E-02   max: -.2955E-01   D at    4  1
       a =  2.250      CL = -0.1177
      Cm =  0.0060     CD =  0.04295   =>   CDf =  0.01143    CDp =  0.03152

 Side 1 forced transition at x/c =  1.0000   80
 Side 2 forced transition at x/c =  1.0000   82

   3   rms: 0.4897E-04   max: 0.5174E-03   C at   82  2
       a =  2.250      CL = -0.1177
      Cm =  0.0060     CD =  0.04294   =>   CDf =  0.01144    CDp =  0.03151
 plradd ia,ip,cpol           46          79  6.28640726E-02

 Point added to stored polar  1
 Save file unspecified or not available
 Dump file unspecified or not available

.OPERva   c>  
.OPERva   c>  
.OPERva   c>   Calculating wake trajectory ...
 Calculating source influence matrix ...

 Solving BL system ...

 Side 1 forced transition at x/c =  1.0000   80
 Side 2 forced transition at x/c =  1.0000   82

   1   rms: 0.1223E-01   max: 0.9974E-01   D at    3  2   RLX: 0.572
       a =  2.300      CL = -0.1160
      Cm =  0.0059     CD =  0.04303   =>   CDf =  0.01144    CDp =  0.03159

 Side 1 forced transition at x/c =  1.0000   80
 Side 2 forced transition at x/c =  1.0000   82

   2   rms: 0.5135E-02   max: 0.4308E-01   D at    3  2
       a =  2.300      CL = -0.1147
      Cm =  0.0058     CD =  0.04308   =>   CDf =  0.01145    CDp =  0.03164

 Side 1 forced transition at x/c =  1.0000   80
 Side 2 forced transition at x/c =  1.0000   82

   3   rms: 0.5671E-04   max: 0.4809E-03   C at   82  2
       a =  2.300      CL = -0.1146
      Cm =  0.0058     CD =  0.04308   =>   CDf =  0.01146    CDp =  0.03162
 plradd ia,ip,cpol           47          79  6.28640726E-02

 Point added to stored polar  1
 Save file unspecified or not available
 Dump file unspecified or not available

.OPERva   c>  
.OPERva   c>  
.OPERva   c>   Calculating wake trajectory ...
 Calculating source influence matrix ...

 Solving BL system ...

 Side 1 forced transition at x/c =  1.0000   80
 Side 2 forced transition at x/c =  1.0000   82

   1   rms: 0.9623E-02   max: 0.6400E-01   D at    4  2   RLX: 0.571
       a =  2.350      CL = -0.1129
      Cm =  0.0057     CD =  0.04316   =>   CDf =  0.01146    CDp =  0.03171

 Side 1 forced transition at x/c =  1.0000   80
 Side 2 forced transition at x/c =  1.0000   82

   2   rms: 0.4152E-02   max: 0.2840E-01   D at    4  2
       a =  2.350      CL = -0.1115
      Cm =  0.0056     CD =  0.04322   =>   CDf =  0.01147    CDp =  0.03176

 Side 1 forced transition at x/c =  1.0000   80
 Side 2 forced transition at x/c =  1.0000   82

   3   rms: 0.4987E-04   max: 0.4915E-03   C at   82  2
       a =  2.350      CL = -0.1115
      Cm =  0.0056     CD =  0.04322   =>   CDf =  0.01148    CDp =  0.03174
 plradd ia,ip,cpol           48          79  6.28640726E-02

 Point added to stored polar  1
 Save file unspecified or not available
 Dump file unspecified or not available

.OPERva   c>  
.OPERva   c>  
.OPERva   c>   Calculating wake trajectory ...
 Calculating source influence matrix ...

 Solving BL system ...

 Side 1 forced transition at x/c =  1.0000   80
 Side 2 forced transition at x/c =  1.0000   82

   1   rms: 0.9427E-02   max: -.9384E-01   D at    4  1   RLX: 0.569
       a =  2.400      CL = -0.1097
      Cm =  0.0055     CD =  0.04331   =>   CDf =  0.01148    CDp =  0.03183

 Side 1 forced transition at x/c =  1.0000   80
 Side 2 forced transition at x/c =  1.0000   82

   2   rms: 0.4049E-02   max: -.3981E-01   D at    4  1
       a =  2.400      CL = -0.1082
      Cm =  0.0054     CD =  0.04337   =>   CDf =  0.01149    CDp =  0.03188

 Side 1 forced transition at x/c =  1.0000   80
 Side 2 forced transition at x/c =  1.0000   82

   3   rms: 0.5195E-04   max: 0.4636E-03   C at   82  2
       a =  2.400      CL = -0.1082
      Cm =  0.0054     CD =  0.04336   =>   CDf =  0.01149    CDp =  0.03187
 plradd ia,ip,cpol           49          79  6.28640726E-02

 Point added to stored polar  1
 Save file unspecified or not available
 Dump file unspecified or not available

.OPERva   c>  
.OPERva   c>  
.OPERva   c>   Calculating wake trajectory ...
 Calculating source influence matrix ...

 Solving BL system ...

 Side 1 forced transition at x/c =  1.0000   80
 Side 2 forced transition at x/c =  1.0000   82

   1   rms: 0.1136E-01   max: 0.1204E+00   D at    4  1   RLX: 0.567
       a =  2.450      CL = -0.1064
      Cm =  0.0052     CD =  0.04346   =>   CDf =  0.01149    CDp =  0.03197

 Side 1 forced transition at x/c =  1.0000   80
 Side 2 forced transition at x/c =  1.0000   82

   2   rms: 0.4741E-02   max: 0.4960E-01   D at    4  1
       a =  2.450      CL = -0.1049
      Cm =  0.0051     CD =  0.04353   =>   CDf =  0.01151    CDp =  0.03202

 Side 1 forced transition at x/c =  1.0000   80
 Side 2 forced transition at x/c =  1.0000   82

   3   rms: 0.6306E-04   max: -.6738E-03   D at    4  1
       a =  2.450      CL = -0.1049
      Cm =  0.0051     CD =  0.04352   =>   CDf =  0.01151    CDp =  0.03201
 plradd ia,ip,cpol           50          79  6.28640726E-02

 Point added to stored polar  1
 Save file unspecified or not available
 Dump file unspecified or not available

.OPERva   c>  
.OPERva   c>  
.OPERva   c>   Calculating wake trajectory ...
 Calculating source influence matrix ...

 Solving BL system ...

 Side 1 forced transition at x/c =  1.0000   80
 Side 2 forced transition at x/c =  1.0000   82

   1   rms: 0.1317E-01   max: -.1593E+00   D at    3  2   RLX: 0.565
       a =  2.500      CL = -0.1030
      Cm =  0.0050     CD =  0.04362   =>   CDf =  0.01151    CDp =  0.03211

 Side 1 forced transition at x/c =  1.0000   80
 Side 2 forced transition at x/c =  1.0000   82

   2   rms: 0.6051E-02   max: -.7420E-01   D at    3  2
       a =  2.500      CL = -0.1015
      Cm =  0.0049     CD =  0.04369   =>   CDf =  0.01152    CDp =  0.03217

 Side 1 forced transition at x/c =  1.0000   80
 Side 2 forced transition at x/c =  1.0000   82

   3   rms: 0.9382E-04   max: -.1281E-02   D at    3  2
       a =  2.500      CL = -0.1015
      Cm =  0.0049     CD =  0.04369   =>   CDf =  0.01153    CDp =  0.03215
 plradd ia,ip,cpol           51          79  6.28640726E-02

 Point added to stored polar  1
 Save file unspecified or not available
 Dump file unspecified or not available

.OPERva   c>  
.OPERva   c>  
.OPERva   c>   Calculating wake trajectory ...
 Calculating source influence matrix ...

 Solving BL system ...

 Side 1 forced transition at x/c =  1.0000   80
 Side 2 forced transition at x/c =  1.0000   82

   1   rms: 0.1101E-01   max: 0.1329E+00   D at    3  1   RLX: 0.563
       a =  2.550      CL = -0.0996
      Cm =  0.0047     CD =  0.04379   =>   CDf =  0.01153    CDp =  0.03226

 Side 1 forced transition at x/c =  1.0000   80
 Side 2 forced transition at x/c =  1.0000   82

   2   rms: 0.4587E-02   max: 0.5434E-01   D at    3  1
       a =  2.550      CL = -0.0980
      Cm =  0.0046     CD =  0.04386   =>   CDf =  0.01154    CDp =  0.03232

 Side 1 forced transition at x/c =  1.0000   80
 Side 2 forced transition at x/c =  1.0000   82

   3   rms: 0.7544E-04   max: -.9432E-03   D at    3  1
       a =  2.550      CL = -0.0980
      Cm =  0.0046     CD =  0.04385   =>   CDf =  0.01155    CDp =  0.03230
 plradd ia,ip,cpol           52          79  6.28640726E-02

 Point added to stored polar  1
 Save file unspecified or not available
 Dump file unspecified or not available

.OPERva   c>  
.OPERva   c>  
.OPERva   c>   Calculating wake trajectory ...
 Calculating source influence matrix ...

 Solving BL system ...

 Side 1 forced transition at x/c =  1.0000   80
 Side 2 forced transition at x/c =  1.0000   82

   1   rms: 0.1201E-01   max: 0.1201E+00   D at    3  2   RLX: 0.562
       a =  2.600      CL = -0.0961
      Cm =  0.0045     CD =  0.04396   =>   CDf =  0.01155    CDp =  0.03241

 Side 1 forced transition at x/c =  1.0000   80
 Side 2 forced transition at x/c =  1.0000   82

   2   rms: 0.5283E-02   max: 0.5466E-01   D at    3  2
       a =  2.600      CL = -0.0945
      Cm =  0.0044     CD =  0.04404   =>   CDf =  0.01156    CDp =  0.03248

 Side 1 forced transition at x/c =  1.0000   80
 Side 2 forced transition at x/c =  1.0000   82

   3   rms: 0.4450E-04   max: 0.2911E-03   C at   82  2
       a =  2.600      CL = -0.0945
      Cm =  0.0044     CD =  0.04403   =>   CDf =  0.01157    CDp =  0.03246
 plradd ia,ip,cpol           53          79  6.28640726E-02

 Point added to stored polar  1
 Save file unspecified or not available
 Dump file unspecified or not available

.OPERva   c>  
.OPERva   c>  
.OPERva   c>   Calculating wake trajectory ...
 Calculating source influence matrix ...

 Solving BL system ...

 Side 1 forced transition at x/c =  1.0000   80
 Side 2 forced transition at x/c =  1.0000   82

   1   rms: 0.1179E-01   max: -.1187E+00   D at    3  2   RLX: 0.560
       a =  2.650      CL = -0.0926
      Cm =  0.0042     CD =  0.04414   =>   CDf =  0.01157    CDp =  0.03257

 Side 1 forced transition at x/c =  1.0000   80
 Side 2 forced transition at x/c =  1.0000   82

   2   rms: 0.5393E-02   max: -.5542E-01   D at    3  2
       a =  2.650      CL = -0.0910
      Cm =  0.0041     CD =  0.04422   =>   CDf =  0.01158    CDp =  0.03264

 Side 1 forced transition at x/c =  1.0000   80
 Side 2 forced transition at x/c =  1.0000   82

   3   rms: 0.9642E-04   max: -.1085E-02   T at    3  2
       a =  2.650      CL = -0.0910
      Cm =  0.0041     CD =  0.04421   =>   CDf =  0.01159    CDp =  0.03262
 plradd ia,ip,cpol           54          79  6.28640726E-02

 Point added to stored polar  1
 Save file unspecified or not available
 Dump file unspecified or not available

.OPERva   c>  
.OPERva   c>  
.OPERva   c>   Calculating wake trajectory ...
 Calculating source influence matrix ...

 Solving BL system ...

 Side 1 forced transition at x/c =  1.0000   80
 Side 2 forced transition at x/c =  1.0000   82

   1   rms: 0.1058E-01   max: 0.1010E+00   D at    3  2   RLX: 0.559
       a =  2.700      CL = -0.0890
      Cm =  0.0039     CD =  0.04433   =>   CDf =  0.01159    CDp =  0.03274

 Side 1 forced transition at x/c =  1.0000   80
 Side 2 forced transition at x/c =  1.0000   82

   2   rms: 0.4664E-02   max: 0.4550E-01   D at    3  2
       a =  2.700      CL = -0.0874
      Cm =  0.0038     CD =  0.04441   =>   CDf =  0.01160    CDp =  0.03281

 Side 1 forced transition at x/c =  1.0000   80
 Side 2 forced transition at x/c =  1.0000   82

   3   rms: 0.4281E-04   max: 0.2677E-03   C at   82  2
       a =  2.700      CL = -0.0874
      Cm =  0.0038     CD =  0.04440   =>   CDf =  0.01161    CDp =  0.03279
 plradd ia,ip,cpol           55          79  6.28640726E-02

 Point added to stored polar  1
 Save file unspecified or not available
 Dump file unspecified or not available

.OPERva   c>  
.OPERva   c>  
.OPERva   c>   Calculating wake trajectory ...
 Calculating source influence matrix ...

 Solving BL system ...

 Side 1 forced transition at x/c =  1.0000   80
 Side 2 forced transition at x/c =  1.0000   82

   1   rms: 0.1249E-01   max: -.1393E+00   D at    4  2   RLX: 0.557
       a =  2.750      CL = -0.0854
      Cm =  0.0036     CD =  0.04452   =>   CDf =  0.01161    CDp =  0.03291

 Side 1 forced transition at x/c =  1.0000   80
 Side 2 forced transition at x/c =  1.0000   82

   2   rms: 0.5738E-02   max: -.6410E-01   D at    4  2
       a =  2.750      CL = -0.0837
      Cm =  0.0035     CD =  0.04460   =>   CDf =  0.01162    CDp =  0.03299

 Side 1 forced transition at x/c =  1.0000   80
 Side 2 forced transition at x/c =  1.0000   82

   3   rms: 0.6410E-04   max: -.6791E-03   D at    4  2
       a =  2.750      CL = -0.0837
      Cm =  0.0035     CD =  0.04459   =>   CDf =  0.01163    CDp =  0.03297
 plradd ia,ip,cpol           56          79  6.28640726E-02

 Point added to stored polar  1
 Save file unspecified or not available
 Dump file unspecified or not available

.OPERva   c>  
.OPERva   c>  
.OPERva   c>   Calculating wake trajectory ...
 Calculating source influence matrix ...

 Solving BL system ...

 Side 1 forced transition at x/c =  1.0000   80
 Side 2 forced transition at x/c =  1.0000   82

   1   rms: 0.1657E-01   max: -.2063E+00   T at    3  2   RLX: 0.556
       a =  2.800      CL = -0.0817
      Cm =  0.0034     CD =  0.04471   =>   CDf =  0.01166    CDp =  0.03306

 Side 1 forced transition at x/c =  1.0000   81
 Side 2 forced transition at x/c =  1.0000   81

   2   rms: 0.1929E-01   max: -.3064E+00   T at    2  1
       a =  2.800      CL = -0.0801
      Cm =  0.0032     CD =  0.04480   =>   CDf =  0.01164    CDp =  0.03316

 Side 1 forced transition at x/c =  1.0000   81
 Side 2 forced transition at x/c =  1.0000   81

   3   rms: 0.1393E-02   max: -.2032E-01   D at    4  1
       a =  2.800      CL = -0.0801
      Cm =  0.0032     CD =  0.04479   =>   CDf =  0.01165    CDp =  0.03314

 Side 1 forced transition at x/c =  1.0000   81
 Side 2 forced transition at x/c =  1.0000   81

   4   rms: 0.2889E-05   max: 0.3414E-04   D at    6  1
       a =  2.800      CL = -0.0801
      Cm =  0.0032     CD =  0.04479   =>   CDf =  0.01165    CDp =  0.03314
 plradd ia,ip,cpol           57          80  6.28640726E-02

 Point added to stored polar  1
 Save file unspecified or not available
 Dump file unspecified or not available

.OPERva   c>  
.OPERva   c>  
.OPERva   c>   Calculating wake trajectory ...
 Calculating source influence matrix ...

 Solving BL system ...

 Side 1 forced transition at x/c =  1.0000   81
 Side 2 forced transition at x/c =  1.0000   81

   1   rms: 0.1194E-01   max: -.1167E+00   D at    3  1   RLX: 0.554
       a =  2.850      CL = -0.0780
      Cm =  0.0031     CD =  0.04491   =>   CDf =  0.01165    CDp =  0.03326

 Side 1 forced transition at x/c =  1.0000   81
 Side 2 forced transition at x/c =  1.0000   81

   2   rms: 0.5337E-02   max: -.5126E-01   D at    3  1
       a =  2.850      CL = -0.0764
      Cm =  0.0029     CD =  0.04500   =>   CDf =  0.01166    CDp =  0.03334

 Side 1 forced transition at x/c =  1.0000   81
 Side 2 forced transition at x/c =  1.0000   81

   3   rms: 0.4719E-04   max: 0.4330E-03   D at    8  1
       a =  2.850      CL = -0.0764
      Cm =  0.0029     CD =  0.04499   =>   CDf =  0.01167    CDp =  0.03333
 plradd ia,ip,cpol           58          80  0.20451273    

 Point added to stored polar  1
 Save file unspecified or not available
 Dump file unspecified or not available

.OPERva   c>  
.OPERva   c>  
.OPERva   c>   Calculating wake trajectory ...
 Calculating source influence matrix ...

 Solving BL system ...

 Side 1 forced transition at x/c =  1.0000   81
 Side 2 forced transition at x/c =  1.0000   81

   1   rms: 0.7395E-02   max: -.3717E-01   C at   81  2   RLX: 0.552
       a =  2.900      CL = -0.0744
      Cm =  0.0028     CD =  0.04512   =>   CDf =  0.01167    CDp =  0.03345

 Side 1 forced transition at x/c =  1.0000   81
 Side 2 forced transition at x/c =  1.0000   81

   2   rms: 0.3303E-02   max: -.1614E-01   C at   81  2
       a =  2.900      CL = -0.0727
      Cm =  0.0027     CD =  0.04521   =>   CDf =  0.01168    CDp =  0.03353

 Side 1 forced transition at x/c =  1.0000   81
 Side 2 forced transition at x/c =  1.0000   81

   3   rms: 0.3151E-04   max: 0.2023E-03   D at   75  2
       a =  2.900      CL = -0.0727
      Cm =  0.0027     CD =  0.04520   =>   CDf =  0.01169    CDp =  0.03352
 plradd ia,ip,cpol           59          80  0.20451273    

 Point added to stored polar  1
 Save file unspecified or not available
 Dump file unspecified or not available

.OPERva   c>  
.OPERva   c>  
.OPERva   c>   Calculating wake trajectory ...
 Calculating source influence matrix ...

 Solving BL system ...

 Side 1 forced transition at x/c =  1.0000   81
 Side 2 forced transition at x/c =  1.0000   81

   1   rms: 0.1025E-01   max: 0.1040E+00   D at    4  2   RLX: 0.551
       a =  2.950      CL = -0.0707
      Cm =  0.0025     CD =  0.04533   =>   CDf =  0.01169    CDp =  0.03365

 Side 1 forced transition at x/c =  1.0000   81
 Side 2 forced transition at x/c =  1.0000   81

   2   rms: 0.4579E-02   max: 0.4706E-01   D at    4  2
       a =  2.950      CL = -0.0690
      Cm =  0.0024     CD =  0.04543   =>   CDf =  0.01170    CDp =  0.03373

 Side 1 forced transition at x/c =  1.0000   81
 Side 2 forced transition at x/c =  1.0000   81

   3   rms: 0.4528E-04   max: -.3419E-03   D at    3  2
       a =  2.950      CL = -0.0690
      Cm =  0.0024     CD =  0.04542   =>   CDf =  0.01170    CDp =  0.03371
 plradd ia,ip,cpol           60          80  0.20451273    

 Point added to stored polar  1
[...]
 Save file unspecified or not available
 Dump file unspecified or not available

.OPERva   c>  
.OPERva   c>  
.OPERva   c>   Calculating wake trajectory ...
 Calculating source influence matrix ...

 Solving BL system ...

 Side 1  free  transition at x/c =  0.9124   80
 Side 2 forced transition at x/c =  1.0000   76

   1   rms: 0.1573E-01   max: 0.1121E+00   T at   80  1   RLX: 0.483
       a =  7.100      CL =  0.3045
      Cm = -0.0355     CD =  0.08100   =>   CDf =  0.01206    CDp =  0.06894

 Side 1  free  transition at x/c =  0.9116   79
 Side 2 forced transition at x/c =  1.0000   76

   2   rms: 0.6722E-02   max: 0.5877E-01   T at   79  1
       a =  7.100      CL =  0.3011
      Cm = -0.0348     CD =  0.08066   =>   CDf =  0.01207    CDp =  0.06860

 Side 1  free  transition at x/c =  0.9103   79
 Side 2 forced transition at x/c =  1.0000   76

   3   rms: 0.1143E-02   max: -.1852E-01   D at   79  1
       a =  7.100      CL =  0.3004
      Cm = -0.0347     CD =  0.08047   =>   CDf =  0.01205    CDp =  0.06841

 Side 1  free  transition at x/c =  0.9105   79
 Side 2 forced transition at x/c =  1.0000   76

   4   rms: 0.1247E-03   max: -.9942E-03   T at   79  1
       a =  7.100      CL =  0.3005
      Cm = -0.0347     CD =  0.08048   =>   CDf =  0.01205    CDp =  0.06843

 Side 1  free  transition at x/c =  0.9105   79
 Side 2 forced transition at x/c =  1.0000   76

   5   rms: 0.5821E-05   max: -.3082E-04   D at   90  2
       a =  7.100      CL =  0.3005
      Cm = -0.0347     CD =  0.08048   =>   CDf =  0.01205    CDp =  0.06843
 plradd ia,ip,cpol          143          85  6.91113770E-02

 Point added to stored polar  1
 Save file unspecified or not available
 Dump file unspecified or not available

.OPERva   c>  
.OPERva   c>  
.OPERva   c>   Calculating wake trajectory ...
 Calculating source influence matrix ...

 Solving BL system ...

 Side 1  free  transition at x/c =  0.9105   79
 Side 2 forced transition at x/c =  1.0000   76

   1   rms: 0.1273E-01   max: 0.1541E+00   T at   79  1   RLX: 0.475
       a =  7.150      CL =  0.2989
      Cm = -0.0343     CD =  0.08034   =>   CDf =  0.01205    CDp =  0.06828

 Side 1  free  transition at x/c =  0.9087   79
 Side 2 forced transition at x/c =  1.0000   76

   2   rms: 0.6627E-02   max: 0.9582E-01   T at   79  1
       a =  7.150      CL =  0.2983
      Cm = -0.0341     CD =  0.08019   =>   CDf =  0.01204    CDp =  0.06815

 Side 1  free  transition at x/c =  0.9062   79
 Side 2 forced transition at x/c =  1.0000   76

   3   rms: 0.1447E-02   max: -.1663E-01   D at   79  1
       a =  7.150      CL =  0.2988
      Cm = -0.0342     CD =  0.08019   =>   CDf =  0.01203    CDp =  0.06816

 Side 1  free  transition at x/c =  0.9065   79
 Side 2 forced transition at x/c =  1.0000   76

   4   rms: 0.1724E-03   max: -.1813E-02   T at   79  1
       a =  7.150      CL =  0.2990
      Cm = -0.0342     CD =  0.08023   =>   CDf =  0.01203    CDp =  0.06820

 Side 1  free  transition at x/c =  0.9066   79
 Side 2 forced transition at x/c =  1.0000   76

   5   rms: 0.3773E-05   max: -.2508E-04   D at   90  2
       a =  7.150      CL =  0.2990
      Cm = -0.0342     CD =  0.08023   =>   CDf =  0.01203    CDp =  0.06820
 plradd ia,ip,cpol          144          85  5.94953075E-02

 Point added to stored polar  1
 Save file unspecified or not available
 Dump file unspecified or not available

.OPERva   c>  
.OPERva   c>  
.OPERva   c>   Calculating wake trajectory ...
 Calculating source influence matrix ...

 Solving BL system ...

 Side 1  free  transition at x/c =  0.9066   79
 Side 2 forced transition at x/c =  1.0000   76

   1   rms: 0.1102E-01   max: 0.1850E+00   T at   79  1   RLX: 0.474
       a =  7.200      CL =  0.3001
      Cm = -0.0342     CD =  0.08036   =>   CDf =  0.01203    CDp =  0.06832

 Side 1  free  transition at x/c =  0.9043   79
 Side 2 forced transition at x/c =  1.0000   76

   2   rms: 0.5807E-02   max: 0.7624E-01   T at   79  1
       a =  7.200      CL =  0.3032
      Cm = -0.0346     CD =  0.08066   =>   CDf =  0.01202    CDp =  0.06864

 Side 1  free  transition at x/c =  0.9023   79
 Side 2 forced transition at x/c =  1.0000   76

   3   rms: 0.5731E-03   max: -.3418E-02   T at   79  1
       a =  7.200      CL =  0.3035
      Cm = -0.0346     CD =  0.08067   =>   CDf =  0.01201    CDp =  0.06866

 Side 1  free  transition at x/c =  0.9024   79
 Side 2 forced transition at x/c =  1.0000   76

   4   rms: 0.3147E-04   max: -.2835E-03   T at   79  1
       a =  7.200      CL =  0.3035
      Cm = -0.0346     CD =  0.08068   =>   CDf =  0.01202    CDp =  0.06867
 plradd ia,ip,cpol          145          85  5.94953075E-02

 Point added to stored polar  1
 Save file unspecified or not available
 Dump file unspecified or not available

.OPERva   c>  
.OPERva   c>  
.OPERva   c>   Calculating wake trajectory ...
 Calculating source influence matrix ...

 Solving BL system ...

 Side 1  free  transition at x/c =  0.9024   79
 Side 2 forced transition at x/c =  1.0000   76

   1   rms: 0.1440E-01   max: 0.1425E+00   T at   79  1   RLX: 0.475
       a =  7.250      CL =  0.3066
      Cm = -0.0350     CD =  0.08104   =>   CDf =  0.01202    CDp =  0.06903

 Side 1  free  transition at x/c =  0.9006   79
 Side 2 forced transition at x/c =  1.0000   76

   2   rms: 0.8016E-02   max: 0.6834E-01   T at   79  1
       a =  7.250      CL =  0.3112
      Cm = -0.0356     CD =  0.08155   =>   CDf =  0.01201    CDp =  0.06954

 Side 1  free  transition at x/c =  0.8988   79
 Side 2 forced transition at x/c =  1.0000   76

   3   rms: 0.7507E-03   max: -.4736E-02   D at   80  1
       a =  7.250      CL =  0.3115
      Cm = -0.0356     CD =  0.08157   =>   CDf =  0.01200    CDp =  0.06957

 Side 1  free  transition at x/c =  0.8989   79
 Side 2 forced transition at x/c =  1.0000   76

   4   rms: 0.4815E-04   max: -.4329E-03   D at   90  2
       a =  7.250      CL =  0.3115
      Cm = -0.0356     CD =  0.08158   =>   CDf =  0.01200    CDp =  0.06958
 plradd ia,ip,cpol          146          85  5.94953075E-02

 Point added to stored polar  1
 Save file unspecified or not available
 Dump file unspecified or not available

.OPERva   c>  
.OPERva   c>  
.OPERva   c>   Calculating wake trajectory ...
 Calculating source influence matrix ...

 Solving BL system ...

 Side 1  free  transition at x/c =  0.8990   79
 Side 2 forced transition at x/c =  1.0000   76

   1   rms: 0.1721E-01   max: 0.1222E+00   T at   79  1   RLX: 0.477
       a =  7.300      CL =  0.3158
      Cm = -0.0362     CD =  0.08212   =>   CDf =  0.01200    CDp =  0.07012

 Side 1  free  transition at x/c =  0.8976   79
 Side 2 forced transition at x/c =  1.0000   76

   2   rms: 0.9215E-02   max: 0.6123E-01   T at   79  1
       a =  7.300      CL =  0.3211
      Cm = -0.0369     CD =  0.08283   =>   CDf =  0.01200    CDp =  0.07083

 Side 1  free  transition at x/c =  0.8965   79
 Side 2 forced transition at x/c =  1.0000   76

   3   rms: 0.4626E-03   max: -.2825E-02   D at   80  1
       a =  7.300      CL =  0.3213
      Cm = -0.0370     CD =  0.08286   =>   CDf =  0.01199    CDp =  0.07086

 Side 1  free  transition at x/c =  0.8965   79
 Side 2 forced transition at x/c =  1.0000   76

   4   rms: 0.2805E-04   max: -.2441E-03   D at   90  2
       a =  7.300      CL =  0.3213
      Cm = -0.0370     CD =  0.08286   =>   CDf =  0.01199    CDp =  0.07087
 plradd ia,ip,cpol          147          85  5.94953075E-02

 Point added to stored polar  1
 Save file unspecified or not available
 Dump file unspecified or not available

.OPERva   c>  
.OPERva   c>  
.OPERva   c>   Calculating wake trajectory ...
 Calculating source influence matrix ...

 Solving BL system ...

 Side 1  free  transition at x/c =  0.8965   79
 Side 2 forced transition at x/c =  1.0000   76

   1   rms: 0.1722E-01   max: 0.1195E+00   T at   79  1   RLX: 0.480
       a =  7.350      CL =  0.3264
      Cm = -0.0377     CD =  0.08359   =>   CDf =  0.01199    CDp =  0.07160

 Side 1  free  transition at x/c =  0.8956   79
 Side 2 forced transition at x/c =  1.0000   76

   2   rms: 0.9418E-02   max: 0.6064E-01   T at   79  1
       a =  7.350      CL =  0.3323
      Cm = -0.0385     CD =  0.08452   =>   CDf =  0.01199    CDp =  0.07253

 Side 1  free  transition at x/c =  0.8949   78
 Side 2 forced transition at x/c =  1.0000   76

   3   rms: 0.7730E-02   max: 0.3687E-01   D at   79  1
       a =  7.350      CL =  0.3263
      Cm = -0.0375     CD =  0.08380   =>   CDf =  0.01200    CDp =  0.07180

 Side 1  free  transition at x/c =  0.8947   78
 Side 2 forced transition at x/c =  1.0000   76

   4   rms: 0.6862E-03   max: 0.6399E-02   D at   90  2
       a =  7.350      CL =  0.3257
      Cm = -0.0374     CD =  0.08360   =>   CDf =  0.01199    CDp =  0.07161

 Side 1  free  transition at x/c =  0.8947   78
 Side 2 forced transition at x/c =  1.0000   76

   5   rms: 0.1019E-04   max: -.5856E-04   D at   78  1
       a =  7.350      CL =  0.3257
      Cm = -0.0374     CD =  0.08360   =>   CDf =  0.01199    CDp =  0.07160
 plradd ia,ip,cpol          148          85  5.94953075E-02

 Point added to stored polar  1
 Save file unspecified or not available
 Dump file unspecified or not available

.OPERva   c>  
.OPERva   c>  
.OPERva   c>   Calculating wake trajectory ...
 Calculating source influence matrix ...

 Solving BL system ...

 Side 1  free  transition at x/c =  0.8947   78
 Side 2 forced transition at x/c =  1.0000   76

   1   rms: 0.1173E-01   max: 0.1331E+00   T at   78  1   RLX: 0.472
       a =  7.400      CL =  0.3238
      Cm = -0.0370     CD =  0.08343   =>   CDf =  0.01199    CDp =  0.07144

 Side 1  free  transition at x/c =  0.8932   78
 Side 2 forced transition at x/c =  1.0000   76

   2   rms: 0.6369E-02   max: 0.8909E-01   T at   78  1
       a =  7.400      CL =  0.3220
      Cm = -0.0366     CD =  0.08317   =>   CDf =  0.01198    CDp =  0.07119

 Side 1  free  transition at x/c =  0.8908   78
 Side 2 forced transition at x/c =  1.0000   76

   3   rms: 0.1380E-02   max: -.2198E-01   D at   78  1
       a =  7.400      CL =  0.3221
      Cm = -0.0366     CD =  0.08309   =>   CDf =  0.01197    CDp =  0.07112

 Side 1  free  transition at x/c =  0.8911   78
 Side 2 forced transition at x/c =  1.0000   76

   4   rms: 0.2240E-03   max: -.2213E-02   T at   78  1
       a =  7.400      CL =  0.3223
      Cm = -0.0366     CD =  0.08314   =>   CDf =  0.01197    CDp =  0.07117

 Side 1  free  transition at x/c =  0.8912   78
 Side 2 forced transition at x/c =  1.0000   76

   5   rms: 0.5985E-05   max: 0.4682E-04   C at   76  2
       a =  7.400      CL =  0.3223
      Cm = -0.0366     CD =  0.08315   =>   CDf =  0.01197    CDp =  0.07118
 plradd ia,ip,cpol          149          85  5.94953075E-02

 Point added to stored polar  1
 Save file unspecified or not available
 Dump file unspecified or not available

.OPERva   c>  
.OPERva   c>  
.OPERva   c>   Calculating wake trajectory ...
 Calculating source influence matrix ...

 Solving BL system ...

 Side 1  free  transition at x/c =  0.8912   78
 Side 2 forced transition at x/c =  1.0000   76

   1   rms: 0.1064E-01   max: 0.1972E+00   T at   78  1   RLX: 0.470
       a =  7.450      CL =  0.3224
      Cm = -0.0365     CD =  0.08317   =>   CDf =  0.01197    CDp =  0.07120

 Side 1  free  transition at x/c =  0.8887   78
 Side 2 forced transition at x/c =  1.0000   76

   2   rms: 0.5442E-02   max: 0.8743E-01   T at   78  1
       a =  7.450      CL =  0.3249
      Cm = -0.0367     CD =  0.08340   =>   CDf =  0.01196    CDp =  0.07144

 Side 1  free  transition at x/c =  0.8864   78
 Side 2 forced transition at x/c =  1.0000   76

   3   rms: 0.8957E-03   max: -.5392E-02   D at   79  1
       a =  7.450      CL =  0.3253
      Cm = -0.0368     CD =  0.08342   =>   CDf =  0.01195    CDp =  0.07147

 Side 1  free  transition at x/c =  0.8866   78
 Side 2 forced transition at x/c =  1.0000   76

   4   rms: 0.8130E-04   max: -.7142E-03   T at   78  1
       a =  7.450      CL =  0.3254
      Cm = -0.0368     CD =  0.08344   =>   CDf =  0.01195    CDp =  0.07149
 plradd ia,ip,cpol          150          85  5.94953075E-02

 Point added to stored polar  1
 Save file unspecified or not available
 Dump file unspecified or not available

.OPERva   c>  
.OPERva   c>  
.OPERva   c>   Calculating wake trajectory ...
 Calculating source influence matrix ...

 Solving BL system ...

 Side 1  free  transition at x/c =  0.8866   78
 Side 2 forced transition at x/c =  1.0000   76

   1   rms: 0.1214E-01   max: 0.1511E+00   T at   78  1   RLX: 0.471
       a =  7.500      CL =  0.3281
      Cm = -0.0371     CD =  0.08376   =>   CDf =  0.01195    CDp =  0.07181

 Side 1  free  transition at x/c =  0.8847   78
 Side 2 forced transition at x/c =  1.0000   76

   2   rms: 0.7010E-02   max: 0.7237E-01   T at   78  1
       a =  7.500      CL =  0.3323
      Cm = -0.0376     CD =  0.08422   =>   CDf =  0.01194    CDp =  0.07228

 Side 1  free  transition at x/c =  0.8828   78
 Side 2 forced transition at x/c =  1.0000   76

   3   rms: 0.7673E-03   max: -.4811E-02   D at   79  1
       a =  7.500      CL =  0.3327
      Cm = -0.0377     CD =  0.08424   =>   CDf =  0.01194    CDp =  0.07231

 Side 1  free  transition at x/c =  0.8829   78
 Side 2 forced transition at x/c =  1.0000   76

   4   rms: 0.6327E-04   max: -.5563E-03   D at   90  2
       a =  7.500      CL =  0.3327
      Cm = -0.0377     CD =  0.08426   =>   CDf =  0.01194    CDp =  0.07233
 plradd ia,ip,cpol          151          85  5.94953075E-02

 Point added to stored polar  1
 Save file unspecified or not available
 Dump file unspecified or not available

.OPERva   c>  
.OPERva   c>  
.OPERva   c>   Calculating wake trajectory ...
 Calculating source influence matrix ...

 Solving BL system ...

 Side 1  free  transition at x/c =  0.8829   78
 Side 2 forced transition at x/c =  1.0000   76

   1   rms: 0.1430E-01   max: 0.1368E+00   T at   78  1   RLX: 0.473
       a =  7.550      CL =  0.3369
      Cm = -0.0382     CD =  0.08478   =>   CDf =  0.01194    CDp =  0.07284

 Side 1  free  transition at x/c =  0.8814   78
 Side 2 forced transition at x/c =  1.0000   76

   2   rms: 0.8288E-02   max: 0.6920E-01   T at   78  1
       a =  7.550      CL =  0.3426
      Cm = -0.0390     CD =  0.08550   =>   CDf =  0.01193    CDp =  0.07357

 Side 1  free  transition at x/c =  0.8800   78
 Side 2 forced transition at x/c =  1.0000   76

   3   rms: 0.7028E-03   max: -.3847E-02   D at   79  1
       a =  7.550      CL =  0.3428
      Cm = -0.0390     CD =  0.08555   =>   CDf =  0.01192    CDp =  0.07362

 Side 1  free  transition at x/c =  0.8801   78
 Side 2 forced transition at x/c =  1.0000   76

   4   rms: 0.5177E-04   max: -.4663E-03   D at   90  2
       a =  7.550      CL =  0.3429
      Cm = -0.0390     CD =  0.08556   =>   CDf =  0.01192    CDp =  0.07364
 plradd ia,ip,cpol          152          85  5.94953075E-02

 Point added to stored polar  1
 Save file unspecified or not available
 Dump file unspecified or not available

.OPERva   c>  
.OPERva   c>  
.OPERva   c>   Calculating wake trajectory ...
 Calculating source influence matrix ...

 Solving BL system ...

 Side 1  free  transition at x/c =  0.8801   78
 Side 2 forced transition at x/c =  1.0000   76

   1   rms: 0.1783E-01   max: 0.1412E+00   T at   78  1   RLX: 0.476
       a =  7.600      CL =  0.3485
      Cm = -0.0398     CD =  0.08636   =>   CDf =  0.01192    CDp =  0.07443

 Side 1  free  transition at x/c =  0.8790   78
 Side 2 forced transition at x/c =  1.0000   76

   2   rms: 0.9821E-02   max: 0.7049E-01   T at   78  1
       a =  7.600      CL =  0.3551
      Cm = -0.0408     CD =  0.08741   =>   CDf =  0.01192    CDp =  0.07549

 Side 1  free  transition at x/c =  0.8782   77
 Side 2 forced transition at x/c =  1.0000   76

   3   rms: 0.7737E-02   max: 0.3863E-01   D at   78  1
       a =  7.600      CL =  0.3492
      Cm = -0.0398     CD =  0.08671   =>   CDf =  0.01192    CDp =  0.07478

 Side 1  free  transition at x/c =  0.8780   77
 Side 2 forced transition at x/c =  1.0000   76

   4   rms: 0.7947E-03   max: 0.6350E-02   D at   90  2
       a =  7.600      CL =  0.3485
      Cm = -0.0397     CD =  0.08649   =>   CDf =  0.01192    CDp =  0.07456

 Side 1  free  transition at x/c =  0.8780   77
 Side 2 forced transition at x/c =  1.0000   76

   5   rms: 0.2612E-04   max: 0.1325E-03   D at   91  2
       a =  7.600      CL =  0.3485
      Cm = -0.0397     CD =  0.08648   =>   CDf =  0.01192    CDp =  0.07456
 plradd ia,ip,cpol          153          85  5.94953075E-02

 Point added to stored polar  1
 Save file unspecified or not available
 Dump file unspecified or not available

.OPERva   c>  
.OPERva   c>  
.OPERva   c>   Calculating wake trajectory ...
 Calculating source influence matrix ...

 Solving BL system ...

 Side 1  free  transition at x/c =  0.8780   77
 Side 2 forced transition at x/c =  1.0000   76

   1   rms: 0.1598E-01   max: -.1750E+00   D at    3  1   RLX: 0.469
       a =  7.650      CL =  0.3464
      Cm = -0.0393     CD =  0.08633   =>   CDf =  0.01192    CDp =  0.07441

 Side 1  free  transition at x/c =  0.8767   77
 Side 2 forced transition at x/c =  1.0000   76

   2   rms: 0.8874E-02   max: -.9575E-01   D at    3  1
       a =  7.650      CL =  0.3444
      Cm = -0.0388     CD =  0.08607   =>   CDf =  0.01191    CDp =  0.07416

 Side 1  free  transition at x/c =  0.8745   77
 Side 2 forced transition at x/c =  1.0000   76

   3   rms: 0.1193E-02   max: -.2058E-01   D at   77  1
       a =  7.650      CL =  0.3443
      Cm = -0.0388     CD =  0.08596   =>   CDf =  0.01190    CDp =  0.07406

 Side 1  free  transition at x/c =  0.8748   77
 Side 2 forced transition at x/c =  1.0000   76

   4   rms: 0.1880E-03   max: -.1752E-02   T at   77  1
       a =  7.650      CL =  0.3445
      Cm = -0.0388     CD =  0.08601   =>   CDf =  0.01190    CDp =  0.07411

 Side 1  free  transition at x/c =  0.8748   77
 Side 2 forced transition at x/c =  1.0000   76

   5   rms: 0.5759E-05   max: 0.4407E-04   C at   76  2
       a =  7.650      CL =  0.3445
      Cm = -0.0388     CD =  0.08601   =>   CDf =  0.01190    CDp =  0.07411
 plradd ia,ip,cpol          154          85  5.94953075E-02

 Point added to stored polar  1
 Save file unspecified or not available
 Dump file unspecified or not available

.OPERva   c>  
.OPERva   c>  
.OPERva   c>   Calculating wake trajectory ...
 Calculating source influence matrix ...

 Solving BL system ...

 Side 1  free  transition at x/c =  0.8748   77
 Side 2 forced transition at x/c =  1.0000   76

   1   rms: 0.1649E-01   max: 0.1854E+00   T at   77  1   RLX: 0.466
       a =  7.700      CL =  0.3442
      Cm = -0.0386     CD =  0.08601   =>   CDf =  0.01190    CDp =  0.07411

 Side 1  free  transition at x/c =  0.8726   77
 Side 2 forced transition at x/c =  1.0000   76

   2   rms: 0.8053E-02   max: 0.8373E-01   T at   77  1
       a =  7.700      CL =  0.3460
      Cm = -0.0387     CD =  0.08618   =>   CDf =  0.01189    CDp =  0.07429

 Side 1  free  transition at x/c =  0.8705   77
 Side 2 forced transition at x/c =  1.0000   76

   3   rms: 0.7501E-03   max: -.4575E-02   D at   78  1
       a =  7.700      CL =  0.3464
      Cm = -0.0388     CD =  0.08619   =>   CDf =  0.01188    CDp =  0.07431

 Side 1  free  transition at x/c =  0.8706   77
 Side 2 forced transition at x/c =  1.0000   76

   4   rms: 0.7814E-04   max: -.6864E-03   D at   91  2
       a =  7.700      CL =  0.3464
      Cm = -0.0388     CD =  0.08622   =>   CDf =  0.01188    CDp =  0.07433
 plradd ia,ip,cpol          155          85  5.94953075E-02

 Point added to stored polar  1
 Save file unspecified or not available
 Dump file unspecified or not available

.OPERva   c>  
.OPERva   c>  
.OPERva   c>   Calculating wake trajectory ...
 Calculating source influence matrix ...

 Solving BL system ...

