
 ===================================================
  XFOIL Version 6.99
  Copyright (C) 2000   Mark Drela, Harold Youngren

  This software comes with ABSOLUTELY NO WARRANTY,
    subject to the GNU General Public License.

  Caveat computor
 ===================================================

 File  xfoil.def  not found

   QUIT    Exit program

  .OPER    Direct operating point(s)
  .MDES    Complex mapping design routine
  .QDES    Surface speed design routine
  .GDES    Geometry design routine

   SAVE f  Write airfoil to labeled coordinate file
   PSAV f  Write airfoil to plain coordinate file
   ISAV f  Write airfoil to ISES coordinate file
   MSAV f  Write airfoil to MSES coordinate file
   REVE    Reverse written-airfoil node ordering

   LOAD f  Read buffer airfoil from coordinate file
   NACA i  Set NACA 4,5-digit airfoil and buffer airfoil
   INTE    Set buffer airfoil by interpolating two airfoils
   NORM    Buffer airfoil normalization toggle
   XYCM rr Change CM reference location, currently  0.25000 0.00000

   BEND    Display structural properties of current airfoil

   PCOP    Set current-airfoil panel nodes directly from buffer airfoil points
   PANE    Set current-airfoil panel nodes ( 160 ) based on curvature
  .PPAR    Show/change paneling

  .PLOP    Plotting options

   WDEF f  Write  current-settings file
   RDEF f  Reread current-settings file
   NAME s  Specify new airfoil name
   NINC    Increment name version number

   Z       Zoom    | (available in all menus)
   U       Unzoom  | 

 XFOIL   c>  
 Labeled airfoil file.  Name:  SG6040                                          

 Number of input coordinate points:  81
 Counterclockwise ordering
 Max thickness =     0.160016  at x =   0.353
 Max camber    =     0.025156  at x =   0.582

  LE  x,y  =   0.00009  -0.00040  |   Chord =   0.99991
  TE  x,y  =   1.00000   0.00000  |

 Current airfoil nodes set from buffer airfoil nodes (  81 )

 XFOIL   c>  
  F  disk file
  C  current airfoil  SG6040                                          

  Select source of airfoil "0" ( F C ):  
Enter filename   s>  
  Select source of airfoil "1" ( F C ):  
Enter filename   s>  
 airfoil "0":  SG6040                                          
 airfoil "1":  SG6040                                          

Specify interpolating fraction  0...1   r>   Max thickness =     0.160016  at x =   0.353
 Max camber    =     0.025156  at x =   0.582

Enter new airfoil name   s>  
 Result has been placed in buffer airfoil
 Execute PCOP or PANE to set new current airfoil

 XFOIL   c>  
 Sharp trailing edge

 Paneling parameters used...
   Number of panel nodes       160
   Panel bunching parameter    1.000
   TE/LE panel density ratio   0.150
   Refined-area/LE panel density ratio    0.200
   Top    side refined area x/c limits  1.000 1.000
   Bottom side refined area x/c limits  1.000 1.000

 XFOIL   c>  
 XFOIL   c>  
 XFOIL   c>  
.OPERi   c>  
.OPERi   c>  
 Sonic Cp =   -550.04      Sonic Q/Qinf =    26.096


.OPERi   c>  
 M  =    0.0350
 Re =     25000

.OPERv   c>  
 Polar  1 newly created for accumulation
 Airfoil archived with polar: BlendedAirfoil                                  

Enter  polar save filename  OR  <return> for no file   s>  
 Polar save file will NOT be written

Enter  polar dump filename  OR  <return> for no file   s>  
 Polar dump file will NOT be written

 Polar accumulation enabled

.OPERva   c>   Calculating unit vorticity distributions ...
 Calculating wake trajectory ...
 Calculating source influence matrix ...

 Solving BL system ...

 Initializing BL ...
    side            1  ...
 MRCHUE: Inverse mode at  53     Hk =   3.800
 MRCHUE: Inverse mode at  54     Hk =   3.968
 MRCHUE: Inverse mode at  55     Hk =   4.133
 MRCHUE: Inverse mode at  56     Hk =   4.295
 MRCHUE: Inverse mode at  57     Hk =   4.454
 MRCHUE: Inverse mode at  58     Hk =   4.609
 MRCHUE: Inverse mode at  59     Hk =   4.761
 MRCHUE: Inverse mode at  60     Hk =   4.911
 MRCHUE: Inverse mode at  61     Hk =   5.058
 MRCHUE: Inverse mode at  62     Hk =   5.203
 MRCHUE: Inverse mode at  63     Hk =   5.347
 MRCHUE: Inverse mode at  64     Hk =   5.488
 MRCHUE: Inverse mode at  65     Hk =   5.627
 MRCHUE: Inverse mode at  66     Hk =   5.766
 MRCHUE: Convergence failed at  67  side 1    Res =  0.2207E+01
 MRCHUE: Inverse mode at  68     Hk =   5.902
 MRCHUE: Inverse mode at  69     Hk =   6.037
 MRCHUE: Inverse mode at  70     Hk =   6.171
 MRCHUE: Inverse mode at  71     Hk =   6.303
 MRCHUE: Inverse mode at  72     Hk =   6.434
 MRCHUE: Inverse mode at  73     Hk =   6.563
 MRCHUE: Inverse mode at  74     Hk =   6.690
 MRCHUE: Inverse mode at  75     Hk =   6.814
 MRCHUE: Inverse mode at  76     Hk =   6.935
 MRCHUE: Inverse mode at  77     Hk =   7.052
 MRCHUE: Inverse mode at  78     Hk =   7.162
 MRCHUE: Inverse mode at  79     Hk =   7.266
 MRCHUE: Inverse mode at  80     Hk =   7.364
 MRCHUE: Inverse mode at  81     Hk =   7.451
 MRCHUE: Inverse mode at  82     Hk =   7.528
 MRCHUE: Inverse mode at  83     Hk =   7.573
    side            2  ...
 MRCHUE: Inverse mode at  49     Hk =   3.800
 MRCHUE: Inverse mode at  50     Hk =   3.958
 MRCHUE: Inverse mode at  51     Hk =   4.114
 MRCHUE: Inverse mode at  52     Hk =   4.268
 MRCHUE: Inverse mode at  53     Hk =   4.421
 MRCHUE: Inverse mode at  54     Hk =   4.571
 MRCHUE: Inverse mode at  55     Hk =   4.719
 MRCHUE: Inverse mode at  56     Hk =   4.864
 MRCHUE: Convergence failed at  57  side 2    Res =  0.2532E+01
 MRCHUE: Inverse mode at  58     Hk =   5.006
 MRCHUE: Inverse mode at  59     Hk =   5.144
 MRCHUE: Convergence failed at  60  side 2    Res =  0.1293E+01
 MRCHUE: Inverse mode at  61     Hk =   5.276
 MRCHUE: Inverse mode at  62     Hk =   5.406
 MRCHUE: Inverse mode at  63     Hk =   5.532
 MRCHUE: Inverse mode at  64     Hk =   5.657
 MRCHUE: Convergence failed at  65  side 2    Res =  0.1940E+01
 MRCHUE: Inverse mode at  66     Hk =   5.777
 MRCHUE: Inverse mode at  67     Hk =   5.894
 MRCHUE: Inverse mode at  68     Hk =   6.009
 MRCHUE: Inverse mode at  69     Hk =   6.121
 MRCHUE: Inverse mode at  70     Hk =   6.231
 MRCHUE: Inverse mode at  71     Hk =   6.338
 MRCHUE: Inverse mode at  72     Hk =   6.443
 MRCHUE: Inverse mode at  73     Hk =   6.543
 MRCHUE: Inverse mode at  74     Hk =   6.640
 MRCHUE: Inverse mode at  75     Hk =   6.731
 MRCHUE: Inverse mode at  76     Hk =   6.815
 MRCHUE: Inverse mode at  77     Hk =   6.891
 MRCHUE: Inverse mode at  78     Hk =   6.958
 MRCHUE: Inverse mode at  79     Hk =   6.999
 MRCHUE: Inverse mode at  81     Hk =   5.429
 MRCHUE: Inverse mode at  82     Hk =   4.467
 MRCHUE: Inverse mode at  83     Hk =   3.872
 MRCHUE: Inverse mode at  84     Hk =   3.463
 MRCHUE: Inverse mode at  85     Hk =   3.162

 MRCHDU: Convergence failed at  65  side 2    Res =  0.8821E+01
 MRCHDU: Convergence failed at  66  side 2    Res =  0.1295E+02
 MRCHDU: Convergence failed at  67  side 2    Res =  0.2461E+03
 MRCHDU: Convergence failed at  68  side 2    Res =  0.3534E+02
 MRCHDU: Convergence failed at  69  side 2    Res =  0.1918E+02
 MRCHDU: Convergence failed at  70  side 2    Res =  0.1326E+02
 MRCHDU: Convergence failed at  71  side 2    Res =  0.1057E+02
 MRCHDU: Convergence failed at  72  side 2    Res =  0.8616E+01
 MRCHDU: Convergence failed at  73  side 2    Res =  0.7081E+01
 MRCHDU: Convergence failed at  74  side 2    Res =  0.5795E+01
 MRCHDU: Convergence failed at  75  side 2    Res =  0.5278E+01
 MRCHDU: Convergence failed at  76  side 2    Res =  0.4881E+01
 MRCHDU: Convergence failed at  77  side 2    Res =  0.4573E+01
 MRCHDU: Convergence failed at  78  side 2    Res =  0.4332E+01
 MRCHDU: Convergence failed at  79  side 2    Res =  0.6925E+01
 Side 1 forced transition at x/c =  1.0000   83
 Side 2 forced transition at x/c =  1.0000   79
 idif Ue xi dudx           2  0.32495061      4.38475609E-03   74.109161    
 Uenew xinew           3  0.18475591      2.49302387E-03

   1   rms: 0.8330E+00   max: 0.5271E+01   D at   86  2   RLX: 0.285
       a =  0.000      CL =  0.2740
      Cm = -0.0804     CD =  0.01223   =>   CDf =  0.01595    CDp = -0.00372

 Side 1 forced transition at x/c =  1.0000   81
 Side 2 forced transition at x/c =  1.0000   81
 idif Ue xi dudx           2  0.31661654      5.02467155E-03   63.012383    
 Uenew xinew           3  0.19120182      3.03435326E-03

   2   rms: 0.4620E+00   max: 0.2207E+01   D at   90  2   RLX: 0.680
       a =  0.000      CL = -0.0322
      Cm = -0.0263     CD =  0.02356   =>   CDf =  0.01530    CDp =  0.00827

 MRCHDU: Convergence failed at  91  side 2    Res =  0.7815E+01
 MRCHDU: Convergence failed at  92  side 2    Res =  0.3953E+01
 MRCHDU: Convergence failed at  93  side 2    Res =  0.1239E+02
 MRCHDU: Convergence failed at  94  side 2    Res =  0.2643E+01
 Side 1 forced transition at x/c =  1.0000   79
 Side 2 forced transition at x/c =  1.0000   83
 idif Ue xi dudx           1  0.13620880      2.64883041E-03   51.422245    
 Uenew xinew           2  2.52127275E-02  4.90307808E-04

   3   rms: 0.1738E+00   max: 0.8966E+00   D at   90  2
       a =  0.000      CL = -0.1330
      Cm = -0.0063     CD =  0.04071   =>   CDf =  0.01397    CDp =  0.02675

 Side 1 forced transition at x/c =  1.0000   78
 Side 2 forced transition at x/c =  1.0000   84

   4   rms: 0.1873E-01   max: 0.1502E+00   D at   92  2
       a =  0.000      CL = -0.1263
      Cm = -0.0073     CD =  0.04651   =>   CDf =  0.01321    CDp =  0.03330

 Side 1 forced transition at x/c =  1.0000   78
 Side 2 forced transition at x/c =  1.0000   84

   5   rms: 0.5738E-03   max: -.6188E-02   D at    3  2
       a =  0.000      CL = -0.1264
      Cm = -0.0073     CD =  0.04625   =>   CDf =  0.01311    CDp =  0.03314

 Side 1 forced transition at x/c =  1.0000   78
 Side 2 forced transition at x/c =  1.0000   84

   6   rms: 0.4326E-05   max: -.3677E-04   D at    3  2
       a =  0.000      CL = -0.1264
      Cm = -0.0073     CD =  0.04625   =>   CDf =  0.01311    CDp =  0.03314
 plradd ia,ip,cpol            1          77  5.41778430E-02

 Point added to stored polar  1
 Save file unspecified or not available
 Dump file unspecified or not available

.OPERva   c>  
.OPERva   c>  
.OPERva   c>   Calculating wake trajectory ...
 Calculating source influence matrix ...

 Solving BL system ...

 Side 1 forced transition at x/c =  1.0000   78
 Side 2 forced transition at x/c =  1.0000   84

   1   rms: 0.1437E-01   max: -.1469E+00   D at    3  2   RLX: 0.821
       a =  0.050      CL = -0.1269
      Cm = -0.0069     CD =  0.04620   =>   CDf =  0.01311    CDp =  0.03310

 Side 1 forced transition at x/c =  1.0000   78
 Side 2 forced transition at x/c =  1.0000   84

   2   rms: 0.3059E-02   max: -.3620E-01   T at    3  2
       a =  0.050      CL = -0.1270
      Cm = -0.0068     CD =  0.04619   =>   CDf =  0.01312    CDp =  0.03307

 Side 1 forced transition at x/c =  1.0000   78
 Side 2 forced transition at x/c =  1.0000   84

   3   rms: 0.1513E-03   max: 0.1909E-02   D at    4  2
       a =  0.050      CL = -0.1270
      Cm = -0.0068     CD =  0.04619   =>   CDf =  0.01312    CDp =  0.03307

 Side 1 forced transition at x/c =  1.0000   78
 Side 2 forced transition at x/c =  1.0000   84

   4   rms: 0.4560E-05   max: 0.6203E-04   D at    4  2
       a =  0.050      CL = -0.1270
      Cm = -0.0068     CD =  0.04619   =>   CDf =  0.01312    CDp =  0.03307
 plradd ia,ip,cpol            2          77  4.66311201E-02

 Point added to stored polar  1
 Save file unspecified or not available
 Dump file unspecified or not available

.OPERva   c>  
.OPERva   c>  
.OPERva   c>   Calculating wake trajectory ...
 Calculating source influence matrix ...

 Solving BL system ...

 Side 1 forced transition at x/c =  1.0000   78
 Side 2 forced transition at x/c =  1.0000   84

   1   rms: 0.2286E-01   max: 0.2592E+00   T at    3  2   RLX: 0.812
       a =  0.100      CL = -0.1276
      Cm = -0.0064     CD =  0.04615   =>   CDf =  0.01312    CDp =  0.03303

 Side 1 forced transition at x/c =  1.0000   78
 Side 2 forced transition at x/c =  1.0000   84

   2   rms: 0.3075E-02   max: 0.2695E-01   D at    3  1
       a =  0.100      CL = -0.1277
      Cm = -0.0063     CD =  0.04613   =>   CDf =  0.01313    CDp =  0.03300

 Side 1 forced transition at x/c =  1.0000   78
 Side 2 forced transition at x/c =  1.0000   84

   3   rms: 0.2668E-04   max: -.2147E-03   D at    4  2
       a =  0.100      CL = -0.1277
      Cm = -0.0063     CD =  0.04613   =>   CDf =  0.01313    CDp =  0.03300
 plradd ia,ip,cpol            3          77  5.41778430E-02

 Point added to stored polar  1
 Save file unspecified or not available
 Dump file unspecified or not available

.OPERva   c>  
.OPERva   c>  
.OPERva   c>   Calculating wake trajectory ...
 Calculating source influence matrix ...

 Solving BL system ...

 Side 1 forced transition at x/c =  1.0000   78
 Side 2 forced transition at x/c =  1.0000   84

   1   rms: 0.1432E-01   max: -.1924E+00   D at    3  2   RLX: 0.803
       a =  0.150      CL = -0.1283
      Cm = -0.0060     CD =  0.04609   =>   CDf =  0.01313    CDp =  0.03296

 Side 1 forced transition at x/c =  1.0000   78
 Side 2 forced transition at x/c =  1.0000   84

   2   rms: 0.3225E-02   max: -.4397E-01   D at    3  2
       a =  0.150      CL = -0.1284
      Cm = -0.0059     CD =  0.04607   =>   CDf =  0.01314    CDp =  0.03293

 Side 1 forced transition at x/c =  1.0000   78
 Side 2 forced transition at x/c =  1.0000   84

   3   rms: 0.5494E-04   max: -.6682E-03   D at    3  2
       a =  0.150      CL = -0.1284
      Cm = -0.0059     CD =  0.04607   =>   CDf =  0.01314    CDp =  0.03293
 plradd ia,ip,cpol            4          77  5.41778430E-02

 Point added to stored polar  1
 Save file unspecified or not available
 Dump file unspecified or not available

.OPERva   c>  
.OPERva   c>  
.OPERva   c>   Calculating wake trajectory ...
 Calculating source influence matrix ...

 Solving BL system ...

 Side 1 forced transition at x/c =  1.0000   78
 Side 2 forced transition at x/c =  1.0000   84

   1   rms: 0.1512E-01   max: -.1787E+00   D at    4  2   RLX: 0.794
       a =  0.200      CL = -0.1290
      Cm = -0.0055     CD =  0.04603   =>   CDf =  0.01314    CDp =  0.03289

 Side 1 forced transition at x/c =  1.0000   78
 Side 2 forced transition at x/c =  1.0000   84

   2   rms: 0.3563E-02   max: -.4194E-01   D at    4  2
       a =  0.200      CL = -0.1291
      Cm = -0.0054     CD =  0.04601   =>   CDf =  0.01315    CDp =  0.03286

 Side 1 forced transition at x/c =  1.0000   78
 Side 2 forced transition at x/c =  1.0000   84

   3   rms: 0.2598E-04   max: 0.2163E-03   D at    6  2
       a =  0.200      CL = -0.1291
      Cm = -0.0054     CD =  0.04601   =>   CDf =  0.01315    CDp =  0.03286
 plradd ia,ip,cpol            5          77  4.66311201E-02

 Point added to stored polar  1
 Save file unspecified or not available
 Dump file unspecified or not available

.OPERva   c>  
.OPERva   c>  
.OPERva   c>   Calculating wake trajectory ...
 Calculating source influence matrix ...

 Solving BL system ...

 Side 1 forced transition at x/c =  1.0000   78
 Side 2 forced transition at x/c =  1.0000   84

   1   rms: 0.1038E-01   max: -.1500E+00   D at    3  2   RLX: 0.785
       a =  0.250      CL = -0.1297
      Cm = -0.0050     CD =  0.04597   =>   CDf =  0.01332    CDp =  0.03264

 Side 1 forced transition at x/c =  1.0000   79
 Side 2 forced transition at x/c =  1.0000   83

   2   rms: 0.2563E-02   max: -.2413E-01   T at    2  2
       a =  0.250      CL = -0.1298
      Cm = -0.0049     CD =  0.04595   =>   CDf =  0.01317    CDp =  0.03278

 Side 1 forced transition at x/c =  1.0000   79
 Side 2 forced transition at x/c =  1.0000   83

   3   rms: 0.8745E-04   max: -.1058E-02   D at    3  1
       a =  0.250      CL = -0.1298
      Cm = -0.0049     CD =  0.04595   =>   CDf =  0.01317    CDp =  0.03277
 plradd ia,ip,cpol            6          78  5.41778430E-02

 Point added to stored polar  1
 Save file unspecified or not available
 Dump file unspecified or not available

.OPERva   c>  
.OPERva   c>  
.OPERva   c>   Calculating wake trajectory ...
 Calculating source influence matrix ...

 Solving BL system ...

 Side 1 forced transition at x/c =  1.0000   79
 Side 2 forced transition at x/c =  1.0000   83

   1   rms: 0.7253E-02   max: -.7422E-01   D at    4  1   RLX: 0.777
       a =  0.300      CL = -0.1304
      Cm = -0.0046     CD =  0.04591   =>   CDf =  0.01317    CDp =  0.03273

 Side 1 forced transition at x/c =  1.0000   79
 Side 2 forced transition at x/c =  1.0000   83

   2   rms: 0.1640E-02   max: -.1696E-01   D at    4  1
       a =  0.300      CL = -0.1305
      Cm = -0.0045     CD =  0.04589   =>   CDf =  0.01318    CDp =  0.03271

 Side 1 forced transition at x/c =  1.0000   79
 Side 2 forced transition at x/c =  1.0000   83

   3   rms: 0.1887E-04   max: -.1598E-03   D at   96  2
       a =  0.300      CL = -0.1305
      Cm = -0.0045     CD =  0.04589   =>   CDf =  0.01318    CDp =  0.03270
 plradd ia,ip,cpol            7          78  5.41778430E-02

 Point added to stored polar  1
 Save file unspecified or not available
 Dump file unspecified or not available

.OPERva   c>  
.OPERva   c>  
.OPERva   c>   Calculating wake trajectory ...
 Calculating source influence matrix ...

 Solving BL system ...

 Side 1 forced transition at x/c =  1.0000   79
 Side 2 forced transition at x/c =  1.0000   83
 idif Ue xi dudx           1  9.40721855E-02  2.16734409E-03   43.404362    
 Uenew xinew           2  3.82891041E-04  8.82148743E-06

   1   rms: 0.1463E-01   max: -.1678E+00   D at    3  1   RLX: 0.769
       a =  0.350      CL = -0.1310
      Cm = -0.0041     CD =  0.04584   =>   CDf =  0.01306    CDp =  0.03278

 Side 1 forced transition at x/c =  1.0000   78
 Side 2 forced transition at x/c =  1.0000   84

   2   rms: 0.1933E-01   max: -.3366E+00   T at    2  2
       a =  0.350      CL = -0.1312
      Cm = -0.0040     CD =  0.04582   =>   CDf =  0.01318    CDp =  0.03264

 Side 1 forced transition at x/c =  1.0000   78
 Side 2 forced transition at x/c =  1.0000   84

   3   rms: 0.2568E-02   max: -.3427E-01   D at    4  2
       a =  0.350      CL = -0.1312
      Cm = -0.0040     CD =  0.04582   =>   CDf =  0.01319    CDp =  0.03263

 Side 1 forced transition at x/c =  1.0000   78
 Side 2 forced transition at x/c =  1.0000   84

   4   rms: 0.1090E-04   max: 0.1384E-03   D at    6  2
       a =  0.350      CL = -0.1312
      Cm = -0.0040     CD =  0.04582   =>   CDf =  0.01319    CDp =  0.03263
 plradd ia,ip,cpol            8          77  5.41778430E-02

 Point added to stored polar  1
 Save file unspecified or not available
 Dump file unspecified or not available

.OPERva   c>  
.OPERva   c>  
.OPERva   c>   Calculating wake trajectory ...
 Calculating source influence matrix ...

 Solving BL system ...

 Side 1 forced transition at x/c =  1.0000   78
 Side 2 forced transition at x/c =  1.0000   84

   1   rms: 0.2294E-01   max: -.3537E+00   D at    3  2   RLX: 0.761
       a =  0.400      CL = -0.1318
      Cm = -0.0036     CD =  0.04578   =>   CDf =  0.01335    CDp =  0.03242

 Side 1 forced transition at x/c =  1.0000   79
 Side 2 forced transition at x/c =  1.0000   83

   2   rms: 0.8123E-02   max: 0.8527E-01   D at    3  2
       a =  0.400      CL = -0.1319
      Cm = -0.0035     CD =  0.04576   =>   CDf =  0.01320    CDp =  0.03255

 Side 1 forced transition at x/c =  1.0000   79
 Side 2 forced transition at x/c =  1.0000   83

   3   rms: 0.3382E-03   max: -.4874E-02   D at    3  1
       a =  0.400      CL = -0.1319
      Cm = -0.0035     CD =  0.04575   =>   CDf =  0.01321    CDp =  0.03255

 Side 1 forced transition at x/c =  1.0000   79
 Side 2 forced transition at x/c =  1.0000   83

   4   rms: 0.1815E-05   max: -.2171E-04   D at    4  1
       a =  0.400      CL = -0.1319
      Cm = -0.0035     CD =  0.04575   =>   CDf =  0.01321    CDp =  0.03255
 plradd ia,ip,cpol            9          78  5.41778430E-02

 Point added to stored polar  1
 Save file unspecified or not available
 Dump file unspecified or not available

.OPERva   c>  
.OPERva   c>  
.OPERva   c>   Calculating wake trajectory ...
 Calculating source influence matrix ...

 Solving BL system ...

 Side 1 forced transition at x/c =  1.0000   79
 Side 2 forced transition at x/c =  1.0000   83

   1   rms: 0.1276E-01   max: -.1303E+00   D at    3  2   RLX: 0.753
       a =  0.450      CL = -0.1324
      Cm = -0.0032     CD =  0.04571   =>   CDf =  0.01321    CDp =  0.03250

 Side 1 forced transition at x/c =  1.0000   79
 Side 2 forced transition at x/c =  1.0000   83

   2   rms: 0.3644E-02   max: -.3587E-01   D at    3  2
       a =  0.450      CL = -0.1326
      Cm = -0.0030     CD =  0.04569   =>   CDf =  0.01321    CDp =  0.03247

 Side 1 forced transition at x/c =  1.0000   79
 Side 2 forced transition at x/c =  1.0000   83

   3   rms: 0.3697E-04   max: -.2708E-03   D at    3  1
       a =  0.450      CL = -0.1326
      Cm = -0.0030     CD =  0.04569   =>   CDf =  0.01322    CDp =  0.03247
 plradd ia,ip,cpol           10          78  5.41778430E-02

 Point added to stored polar  1
 Save file unspecified or not available
 Dump file unspecified or not available

.OPERva   c>  
.OPERva   c>  
.OPERva   c>   Calculating wake trajectory ...
 Calculating source influence matrix ...

 Solving BL system ...

 Side 1 forced transition at x/c =  1.0000   79
 Side 2 forced transition at x/c =  1.0000   83
 idif Ue xi dudx           1  9.20127407E-02  2.18582153E-03   42.095268    
 Uenew xinew           2  1.14915567E-03  2.72989273E-05

   1   rms: 0.1381E-01   max: -.1813E+00   D at    3  1   RLX: 0.745
       a =  0.500      CL = -0.1332
      Cm = -0.0027     CD =  0.04564   =>   CDf =  0.01310    CDp =  0.03255

 Side 1 forced transition at x/c =  1.0000   78
 Side 2 forced transition at x/c =  1.0000   84

   2   rms: 0.2412E-01   max: -.4206E+00   T at    2  2
       a =  0.500      CL = -0.1333
      Cm = -0.0026     CD =  0.04562   =>   CDf =  0.01322    CDp =  0.03241

 Side 1 forced transition at x/c =  1.0000   78
 Side 2 forced transition at x/c =  1.0000   84

   3   rms: 0.2871E-02   max: -.4008E-01   D at    4  2
       a =  0.500      CL = -0.1333
      Cm = -0.0026     CD =  0.04562   =>   CDf =  0.01322    CDp =  0.03240

 Side 1 forced transition at x/c =  1.0000   78
 Side 2 forced transition at x/c =  1.0000   84

   4   rms: 0.1185E-04   max: 0.1453E-03   D at    6  2
       a =  0.500      CL = -0.1333
      Cm = -0.0026     CD =  0.04562   =>   CDf =  0.01322    CDp =  0.03240
 plradd ia,ip,cpol           11          77  5.41778430E-02

 Point added to stored polar  1
 Save file unspecified or not available
 Dump file unspecified or not available

.OPERva   c>  
.OPERva   c>  
.OPERva   c>   Calculating wake trajectory ...
 Calculating source influence matrix ...

 Solving BL system ...

 Side 1 forced transition at x/c =  1.0000   78
 Side 2 forced transition at x/c =  1.0000   84

   1   rms: 0.1371E-01   max: -.1996E+00   D at    3  2   RLX: 0.738
       a =  0.550      CL = -0.1339
      Cm = -0.0022     CD =  0.04557   =>   CDf =  0.01338    CDp =  0.03219

 Side 1 forced transition at x/c =  1.0000   79
 Side 2 forced transition at x/c =  1.0000   83

   2   rms: 0.2851E-02   max: -.2834E-01   T at    2  2
       a =  0.550      CL = -0.1340
      Cm = -0.0021     CD =  0.04555   =>   CDf =  0.01324    CDp =  0.03231

 Side 1 forced transition at x/c =  1.0000   79
 Side 2 forced transition at x/c =  1.0000   83

   3   rms: 0.6248E-03   max: -.7827E-02   D at    4  1
       a =  0.550      CL = -0.1340
      Cm = -0.0021     CD =  0.04555   =>   CDf =  0.01324    CDp =  0.03231

 Side 1 forced transition at x/c =  1.0000   79
 Side 2 forced transition at x/c =  1.0000   83

   4   rms: 0.1193E-05   max: 0.1407E-04   D at    6  1
       a =  0.550      CL = -0.1340
      Cm = -0.0021     CD =  0.04555   =>   CDf =  0.01324    CDp =  0.03231
 plradd ia,ip,cpol           12          78  5.41778430E-02

 Point added to stored polar  1
 Save file unspecified or not available
 Dump file unspecified or not available

.OPERva   c>  
.OPERva   c>  
.OPERva   c>   Calculating wake trajectory ...
 Calculating source influence matrix ...

 Solving BL system ...

 Side 1 forced transition at x/c =  1.0000   79
 Side 2 forced transition at x/c =  1.0000   83

   1   rms: 0.8705E-02   max: 0.8024E-01   D at    3  2   RLX: 0.730
       a =  0.600      CL = -0.1346
      Cm = -0.0017     CD =  0.04551   =>   CDf =  0.01324    CDp =  0.03227

 Side 1 forced transition at x/c =  1.0000   79
 Side 2 forced transition at x/c =  1.0000   83

   2   rms: 0.2294E-02   max: 0.2136E-01   D at    3  2
       a =  0.600      CL = -0.1348
      Cm = -0.0016     CD =  0.04548   =>   CDf =  0.01325    CDp =  0.03224

 Side 1 forced transition at x/c =  1.0000   79
 Side 2 forced transition at x/c =  1.0000   83

   3   rms: 0.2353E-04   max: -.1786E-03   D at   96  2
       a =  0.600      CL = -0.1347
      Cm = -0.0016     CD =  0.04548   =>   CDf =  0.01325    CDp =  0.03223
 plradd ia,ip,cpol           13          78  5.41778430E-02

 Point added to stored polar  1
 Save file unspecified or not available
 Dump file unspecified or not available

.OPERva   c>  
.OPERva   c>  
.OPERva   c>   Calculating wake trajectory ...
 Calculating source influence matrix ...

 Solving BL system ...

 Side 1 forced transition at x/c =  1.0000   79
 Side 2 forced transition at x/c =  1.0000   83

   1   rms: 0.1354E-01   max: -.1535E+00   D at    3  2   RLX: 0.723
       a =  0.650      CL = -0.1353
      Cm = -0.0013     CD =  0.04544   =>   CDf =  0.01325    CDp =  0.03219

 Side 1 forced transition at x/c =  1.0000   79
 Side 2 forced transition at x/c =  1.0000   83

   2   rms: 0.4377E-02   max: -.4986E-01   D at    3  2
       a =  0.650      CL = -0.1355
      Cm = -0.0011     CD =  0.04541   =>   CDf =  0.01326    CDp =  0.03216

 Side 1 forced transition at x/c =  1.0000   79
 Side 2 forced transition at x/c =  1.0000   83

   3   rms: 0.5277E-04   max: 0.4641E-03   D at    5  2
       a =  0.650      CL = -0.1354
      Cm = -0.0011     CD =  0.04541   =>   CDf =  0.01326    CDp =  0.03215
 plradd ia,ip,cpol           14          78  5.41778430E-02

 Point added to stored polar  1
 Save file unspecified or not available
 Dump file unspecified or not available

.OPERva   c>  
.OPERva   c>  
.OPERva   c>   Calculating wake trajectory ...
 Calculating source influence matrix ...

 Solving BL system ...

 Side 1 forced transition at x/c =  1.0000   79
 Side 2 forced transition at x/c =  1.0000   83

   1   rms: 0.8955E-02   max: 0.5590E-01   D at    3  2   RLX: 0.716
       a =  0.700      CL = -0.1360
      Cm = -0.0008     CD =  0.04536   =>   CDf =  0.01326    CDp =  0.03211

 Side 1 forced transition at x/c =  1.0000   79
 Side 2 forced transition at x/c =  1.0000   83

   2   rms: 0.2455E-02   max: 0.1610E-01   D at    3  2
       a =  0.700      CL = -0.1361
      Cm = -0.0007     CD =  0.04534   =>   CDf =  0.01327    CDp =  0.03207

 Side 1 forced transition at x/c =  1.0000   79
 Side 2 forced transition at x/c =  1.0000   83

   3   rms: 0.2353E-04   max: -.1862E-03   D at   96  2
       a =  0.700      CL = -0.1361
      Cm = -0.0007     CD =  0.04533   =>   CDf =  0.01327    CDp =  0.03207
 plradd ia,ip,cpol           15          78  5.41778430E-02

 Point added to stored polar  1
 Save file unspecified or not available
 Dump file unspecified or not available

.OPERva   c>  
.OPERva   c>  
.OPERva   c>   Calculating wake trajectory ...
 Calculating source influence matrix ...

 Solving BL system ...

 Side 1 forced transition at x/c =  1.0000   79
 Side 2 forced transition at x/c =  1.0000   83

   1   rms: 0.1481E-01   max: 0.1361E+00   D at    3  1   RLX: 0.709
       a =  0.750      CL = -0.1366
      Cm = -0.0003     CD =  0.04529   =>   CDf =  0.01327    CDp =  0.03203

 Side 1 forced transition at x/c =  1.0000   79
 Side 2 forced transition at x/c =  1.0000   83

   2   rms: 0.3718E-02   max: 0.3292E-01   D at    3  2
       a =  0.750      CL = -0.1368
      Cm = -0.0002     CD =  0.04527   =>   CDf =  0.01328    CDp =  0.03199

 Side 1 forced transition at x/c =  1.0000   79
 Side 2 forced transition at x/c =  1.0000   83

   3   rms: 0.3839E-04   max: 0.2498E-03   D at    5  1
       a =  0.750      CL = -0.1368
      Cm = -0.0002     CD =  0.04527   =>   CDf =  0.01328    CDp =  0.03199
 plradd ia,ip,cpol           16          78  5.41778430E-02

 Point added to stored polar  1
 Save file unspecified or not available
 Dump file unspecified or not available

.OPERva   c>  
.OPERva   c>  
.OPERva   c>   Calculating wake trajectory ...
 Calculating source influence matrix ...

 Solving BL system ...

 Side 1 forced transition at x/c =  1.0000   79
 Side 2 forced transition at x/c =  1.0000   83

   1   rms: 0.9028E-02   max: 0.6441E-01   T at    2  1   RLX: 0.702
       a =  0.800      CL = -0.1373
      Cm =  0.0001     CD =  0.04522   =>   CDf =  0.01328    CDp =  0.03194

 Side 1 forced transition at x/c =  1.0000   79
 Side 2 forced transition at x/c =  1.0000   83

   2   rms: 0.2819E-02   max: 0.2157E-01   T at    2  1
       a =  0.800      CL = -0.1374
      Cm =  0.0003     CD =  0.04519   =>   CDf =  0.01329    CDp =  0.03191

 Side 1 forced transition at x/c =  1.0000   79
 Side 2 forced transition at x/c =  1.0000   83

   3   rms: 0.2877E-04   max: -.1965E-03   D at    4  1
       a =  0.800      CL = -0.1374
      Cm =  0.0003     CD =  0.04519   =>   CDf =  0.01329    CDp =  0.03190
 plradd ia,ip,cpol           17          78  5.41778430E-02

 Point added to stored polar  1
 Save file unspecified or not available
 Dump file unspecified or not available

.OPERva   c>  
.OPERva   c>  
.OPERva   c>   Calculating wake trajectory ...
 Calculating source influence matrix ...

 Solving BL system ...

 Side 1 forced transition at x/c =  1.0000   79
 Side 2 forced transition at x/c =  1.0000   83

   1   rms: 0.6524E-02   max: -.3615E-01   D at    4  2   RLX: 0.696
       a =  0.850      CL = -0.1379
      Cm =  0.0006     CD =  0.04515   =>   CDf =  0.01329    CDp =  0.03186

 Side 1 forced transition at x/c =  1.0000   79
 Side 2 forced transition at x/c =  1.0000   83

   2   rms: 0.1982E-02   max: -.1129E-01   D at    4  2
       a =  0.850      CL = -0.1381
      Cm =  0.0007     CD =  0.04512   =>   CDf =  0.01330    CDp =  0.03182

 Side 1 forced transition at x/c =  1.0000   79
 Side 2 forced transition at x/c =  1.0000   83

   3   rms: 0.2532E-04   max: -.1908E-03   D at   97  2
       a =  0.850      CL = -0.1381
      Cm =  0.0007     CD =  0.04511   =>   CDf =  0.01330    CDp =  0.03181
 plradd ia,ip,cpol           18          78  5.41778430E-02

 Point added to stored polar  1
 Save file unspecified or not available
 Dump file unspecified or not available

.OPERva   c>  
.OPERva   c>  
.OPERva   c>   Calculating wake trajectory ...
 Calculating source influence matrix ...

 Solving BL system ...

 Side 1 forced transition at x/c =  1.0000   79
 Side 2 forced transition at x/c =  1.0000   83

   1   rms: 0.1122E-01   max: -.1504E+00   D at    3  2   RLX: 0.689
       a =  0.900      CL = -0.1385
      Cm =  0.0010     CD =  0.04507   =>   CDf =  0.01330    CDp =  0.03178

 Side 1 forced transition at x/c =  1.0000   79
 Side 2 forced transition at x/c =  1.0000   83

   2   rms: 0.3720E-02   max: -.5031E-01   D at    3  2
       a =  0.900      CL = -0.1387
      Cm =  0.0012     CD =  0.04505   =>   CDf =  0.01331    CDp =  0.03174

 Side 1 forced transition at x/c =  1.0000   79
 Side 2 forced transition at x/c =  1.0000   83

   3   rms: 0.4435E-04   max: -.5467E-03   D at    3  2
       a =  0.900      CL = -0.1387
      Cm =  0.0012     CD =  0.04505   =>   CDf =  0.01331    CDp =  0.03173
 plradd ia,ip,cpol           19          78  5.41778430E-02

 Point added to stored polar  1
 Save file unspecified or not available
 Dump file unspecified or not available

.OPERva   c>  
.OPERva   c>  
.OPERva   c>   Calculating wake trajectory ...
 Calculating source influence matrix ...

 Solving BL system ...

 Side 1 forced transition at x/c =  1.0000   79
 Side 2 forced transition at x/c =  1.0000   83

   1   rms: 0.1515E-01   max: 0.1837E+00   D at    3  2   RLX: 0.683
       a =  0.950      CL = -0.1391
      Cm =  0.0015     CD =  0.04500   =>   CDf =  0.01331    CDp =  0.03169

 Side 1 forced transition at x/c =  1.0000   79
 Side 2 forced transition at x/c =  1.0000   83

   2   rms: 0.4331E-02   max: 0.5386E-01   D at    3  2
       a =  0.950      CL = -0.1393
      Cm =  0.0016     CD =  0.04498   =>   CDf =  0.01332    CDp =  0.03166

 Side 1 forced transition at x/c =  1.0000   79
 Side 2 forced transition at x/c =  1.0000   83

   3   rms: 0.4937E-04   max: -.4144E-03   D at    3  2
       a =  0.950      CL = -0.1392
      Cm =  0.0016     CD =  0.04497   =>   CDf =  0.01332    CDp =  0.03165
 plradd ia,ip,cpol           20          78  5.41778430E-02

 Point added to stored polar  1
 Save file unspecified or not available
 Dump file unspecified or not available

.OPERva   c>  
.OPERva   c>  
.OPERva   c>   Calculating wake trajectory ...
 Calculating source influence matrix ...

 Solving BL system ...

 Side 1 forced transition at x/c =  1.0000   79
 Side 2 forced transition at x/c =  1.0000   83

   1   rms: 0.1204E-01   max: -.1072E+00   D at    3  2   RLX: 0.677
       a =  1.000      CL = -0.1396
      Cm =  0.0019     CD =  0.04493   =>   CDf =  0.01332    CDp =  0.03161

 Side 1 forced transition at x/c =  1.0000   79
 Side 2 forced transition at x/c =  1.0000   83

   2   rms: 0.4244E-02   max: -.4000E-01   D at    3  2
       a =  1.000      CL = -0.1397
      Cm =  0.0021     CD =  0.04490   =>   CDf =  0.01333    CDp =  0.03157

 Side 1 forced transition at x/c =  1.0000   79
 Side 2 forced transition at x/c =  1.0000   83

   3   rms: 0.5503E-04   max: -.4090E-03   D at    3  2
       a =  1.000      CL = -0.1397
      Cm =  0.0021     CD =  0.04490   =>   CDf =  0.01333    CDp =  0.03156
 plradd ia,ip,cpol           21          78  5.41778430E-02

 Point added to stored polar  1
 Save file unspecified or not available
 Dump file unspecified or not available

.OPERva   c>  
.OPERva   c>  
.OPERva   c>   Calculating wake trajectory ...
 Calculating source influence matrix ...

 Solving BL system ...

 Side 1 forced transition at x/c =  1.0000   79
 Side 2 forced transition at x/c =  1.0000   83

   1   rms: 0.1511E-01   max: -.1233E+00   T at    2  2   RLX: 0.671
       a =  1.050      CL = -0.1402
      Cm =  0.0024     CD =  0.04486   =>   CDf =  0.01333    CDp =  0.03152

 Side 1 forced transition at x/c =  1.0000   79
 Side 2 forced transition at x/c =  1.0000   83

   2   rms: 0.4443E-02   max: 0.3588E-01   D at    3  2
       a =  1.050      CL = -0.1403
      Cm =  0.0025     CD =  0.04483   =>   CDf =  0.01334    CDp =  0.03149

 Side 1 forced transition at x/c =  1.0000   79
 Side 2 forced transition at x/c =  1.0000   83

   3   rms: 0.5409E-04   max: -.3443E-03   D at    4  2
       a =  1.050      CL = -0.1403
      Cm =  0.0025     CD =  0.04483   =>   CDf =  0.01335    CDp =  0.03148
 plradd ia,ip,cpol           22          78  5.41778430E-02

 Point added to stored polar  1
 Save file unspecified or not available
 Dump file unspecified or not available

.OPERva   c>  
.OPERva   c>  
.OPERva   c>   Calculating wake trajectory ...
 Calculating source influence matrix ...

 Solving BL system ...

 Side 1 forced transition at x/c =  1.0000   79
 Side 2 forced transition at x/c =  1.0000   83

   1   rms: 0.1110E-01   max: -.1172E+00   D at    3  2   RLX: 0.665
       a =  1.100      CL = -0.1407
      Cm =  0.0028     CD =  0.04479   =>   CDf =  0.01335    CDp =  0.03144

 Side 1 forced transition at x/c =  1.0000   79
 Side 2 forced transition at x/c =  1.0000   83

   2   rms: 0.3889E-02   max: -.4245E-01   D at    3  2
       a =  1.100      CL = -0.1408
      Cm =  0.0029     CD =  0.04476   =>   CDf =  0.01335    CDp =  0.03141

 Side 1 forced transition at x/c =  1.0000   79
 Side 2 forced transition at x/c =  1.0000   83

   3   rms: 0.5338E-04   max: -.4358E-03   D at    3  2
       a =  1.100      CL = -0.1407
      Cm =  0.0029     CD =  0.04476   =>   CDf =  0.01336    CDp =  0.03140
 plradd ia,ip,cpol           23          78  5.41778430E-02

 Point added to stored polar  1
 Save file unspecified or not available
 Dump file unspecified or not available

.OPERva   c>  
.OPERva   c>  
.OPERva   c>   Calculating wake trajectory ...
 Calculating source influence matrix ...

 Solving BL system ...

 Side 1 forced transition at x/c =  1.0000   79
 Side 2 forced transition at x/c =  1.0000   83

   1   rms: 0.1048E-01   max: -.1074E+00   D at    3  1   RLX: 0.659
       a =  1.150      CL = -0.1411
      Cm =  0.0032     CD =  0.04472   =>   CDf =  0.01336    CDp =  0.03136

 Side 1 forced transition at x/c =  1.0000   79
 Side 2 forced transition at x/c =  1.0000   83

   2   rms: 0.3703E-02   max: -.3823E-01   D at    3  1
       a =  1.150      CL = -0.1412
      Cm =  0.0034     CD =  0.04469   =>   CDf =  0.01337    CDp =  0.03133

 Side 1 forced transition at x/c =  1.0000   79
 Side 2 forced transition at x/c =  1.0000   83

   3   rms: 0.5090E-04   max: 0.4380E-03   C at   83  2
       a =  1.150      CL = -0.1411
      Cm =  0.0034     CD =  0.04469   =>   CDf =  0.01337    CDp =  0.03132
 plradd ia,ip,cpol           24          78  5.41778430E-02

 Point added to stored polar  1
 Save file unspecified or not available
 Dump file unspecified or not available

.OPERva   c>  
.OPERva   c>  
.OPERva   c>   Calculating wake trajectory ...
 Calculating source influence matrix ...

 Solving BL system ...

 Side 1 forced transition at x/c =  1.0000   79
 Side 2 forced transition at x/c =  1.0000   83

   1   rms: 0.1082E-01   max: 0.9937E-01   D at    3  2   RLX: 0.653
       a =  1.200      CL = -0.1414
      Cm =  0.0036     CD =  0.04465   =>   CDf =  0.01337    CDp =  0.03128

 Side 1 forced transition at x/c =  1.0000   79
 Side 2 forced transition at x/c =  1.0000   83

   2   rms: 0.3648E-02   max: 0.3372E-01   D at    3  2
       a =  1.200      CL = -0.1415
      Cm =  0.0038     CD =  0.04463   =>   CDf =  0.01338    CDp =  0.03125

 Side 1 forced transition at x/c =  1.0000   79
 Side 2 forced transition at x/c =  1.0000   83

   3   rms: 0.4942E-04   max: 0.4591E-03   C at   83  2
       a =  1.200      CL = -0.1414
      Cm =  0.0038     CD =  0.04463   =>   CDf =  0.01338    CDp =  0.03124
 plradd ia,ip,cpol           25          78  5.41778430E-02

 Point added to stored polar  1
 Save file unspecified or not available
 Dump file unspecified or not available

.OPERva   c>  
.OPERva   c>  
.OPERva   c>   Calculating wake trajectory ...
 Calculating source influence matrix ...

 Solving BL system ...

 Side 1 forced transition at x/c =  1.0000   79
 Side 2 forced transition at x/c =  1.0000   83

   1   rms: 0.8334E-02   max: -.8955E-01   D at    3  2   RLX: 0.648
       a =  1.250      CL = -0.1416
      Cm =  0.0040     CD =  0.04460   =>   CDf =  0.01338    CDp =  0.03121

 Side 1 forced transition at x/c =  1.0000   79
 Side 2 forced transition at x/c =  1.0000   83

   2   rms: 0.3028E-02   max: -.3385E-01   D at    3  2
       a =  1.250      CL = -0.1416
      Cm =  0.0042     CD =  0.04457   =>   CDf =  0.01339    CDp =  0.03118

 Side 1 forced transition at x/c =  1.0000   79
 Side 2 forced transition at x/c =  1.0000   83

   3   rms: 0.5552E-04   max: 0.5170E-03   C at   83  2
       a =  1.250      CL = -0.1416
      Cm =  0.0042     CD =  0.04457   =>   CDf =  0.01340    CDp =  0.03117
 plradd ia,ip,cpol           26          78  5.41778430E-02

 Point added to stored polar  1
 Save file unspecified or not available
 Dump file unspecified or not available

.OPERva   c>  
.OPERva   c>  
.OPERva   c>   Calculating wake trajectory ...
 Calculating source influence matrix ...

 Solving BL system ...

 Side 1 forced transition at x/c =  1.0000   79
 Side 2 forced transition at x/c =  1.0000   83

   1   rms: 0.9887E-02   max: 0.7123E-01   D at    3  1   RLX: 0.643
       a =  1.300      CL = -0.1417
      Cm =  0.0044     CD =  0.04454   =>   CDf =  0.01340    CDp =  0.03114

 Side 1 forced transition at x/c =  1.0000   79
 Side 2 forced transition at x/c =  1.0000   83

   2   rms: 0.3355E-02   max: 0.2310E-01   D at    3  1
       a =  1.300      CL = -0.1416
      Cm =  0.0045     CD =  0.04452   =>   CDf =  0.01341    CDp =  0.03111

 Side 1 forced transition at x/c =  1.0000   79
 Side 2 forced transition at x/c =  1.0000   83

   3   rms: 0.6488E-04   max: 0.6711E-03   C at   83  2
       a =  1.300      CL = -0.1416
      Cm =  0.0045     CD =  0.04452   =>   CDf =  0.01341    CDp =  0.03111
 plradd ia,ip,cpol           27          78  5.41778430E-02

 Point added to stored polar  1
 Save file unspecified or not available
 Dump file unspecified or not available

.OPERva   c>  
.OPERva   c>  
.OPERva   c>   Calculating wake trajectory ...
 Calculating source influence matrix ...

 Solving BL system ...

 Side 1 forced transition at x/c =  1.0000   79
 Side 2 forced transition at x/c =  1.0000   83

   1   rms: 0.1165E-01   max: -.1038E+00   D at    3  2   RLX: 0.638
       a =  1.350      CL = -0.1416
      Cm =  0.0047     CD =  0.04450   =>   CDf =  0.01341    CDp =  0.03108

 Side 1 forced transition at x/c =  1.0000   79
 Side 2 forced transition at x/c =  1.0000   83

   2   rms: 0.4595E-02   max: -.4337E-01   D at    3  2
       a =  1.350      CL = -0.1414
      Cm =  0.0048     CD =  0.04448   =>   CDf =  0.01342    CDp =  0.03106

 Side 1 forced transition at x/c =  1.0000   79
 Side 2 forced transition at x/c =  1.0000   83

   3   rms: 0.7958E-04   max: 0.6709E-03   C at   83  2
       a =  1.350      CL = -0.1414
      Cm =  0.0048     CD =  0.04448   =>   CDf =  0.01343    CDp =  0.03105
 plradd ia,ip,cpol           28          78  5.41778430E-02

 Point added to stored polar  1
 Save file unspecified or not available
 Dump file unspecified or not available

.OPERva   c>  
.OPERva   c>  
.OPERva   c>   Calculating wake trajectory ...
 Calculating source influence matrix ...

 Solving BL system ...

 Side 1 forced transition at x/c =  1.0000   79
 Side 2 forced transition at x/c =  1.0000   83

   1   rms: 0.7901E-02   max: -.6207E-01   D at    3  1   RLX: 0.633
       a =  1.400      CL = -0.1413
      Cm =  0.0050     CD =  0.04446   =>   CDf =  0.01343    CDp =  0.03103

 Side 1 forced transition at x/c =  1.0000   79
 Side 2 forced transition at x/c =  1.0000   83

   2   rms: 0.2871E-02   max: -.2166E-01   D at    3  1
       a =  1.400      CL = -0.1411
      Cm =  0.0051     CD =  0.04445   =>   CDf =  0.01344    CDp =  0.03101

 Side 1 forced transition at x/c =  1.0000   79
 Side 2 forced transition at x/c =  1.0000   83

   3   rms: 0.6450E-04   max: 0.7105E-03   C at   83  2
       a =  1.400      CL = -0.1410
      Cm =  0.0051     CD =  0.04444   =>   CDf =  0.01345    CDp =  0.03100
 plradd ia,ip,cpol           29          78  5.41778430E-02

 Point added to stored polar  1
 Save file unspecified or not available
 Dump file unspecified or not available

.OPERva   c>  
.OPERva   c>  
.OPERva   c>   Calculating wake trajectory ...
 Calculating source influence matrix ...

 Solving BL system ...

 Side 1 forced transition at x/c =  1.0000   79
 Side 2 forced transition at x/c =  1.0000   83

   1   rms: 0.1258E-01   max: 0.1528E+00   D at    3  2   RLX: 0.629
       a =  1.450      CL = -0.1408
      Cm =  0.0053     CD =  0.04443   =>   CDf =  0.01345    CDp =  0.03099

 Side 1 forced transition at x/c =  1.0000   79
 Side 2 forced transition at x/c =  1.0000   83

   2   rms: 0.4578E-02   max: 0.5683E-01   D at    3  2
       a =  1.450      CL = -0.1405
      Cm =  0.0054     CD =  0.04442   =>   CDf =  0.01346    CDp =  0.03097

 Side 1 forced transition at x/c =  1.0000   79
 Side 2 forced transition at x/c =  1.0000   83

   3   rms: 0.6408E-04   max: 0.7232E-03   C at   83  2
       a =  1.450      CL = -0.1404
      Cm =  0.0054     CD =  0.04442   =>   CDf =  0.01346    CDp =  0.03095
 plradd ia,ip,cpol           30          78  5.41778430E-02

 Point added to stored polar  1
 Save file unspecified or not available
 Dump file unspecified or not available

.OPERva   c>  
.OPERva   c>  
.OPERva   c>   Calculating wake trajectory ...
 Calculating source influence matrix ...

 Solving BL system ...

 Side 1 forced transition at x/c =  1.0000   79
 Side 2 forced transition at x/c =  1.0000   83

   1   rms: 0.1433E-01   max: -.2084E+00   D at    3  2   RLX: 0.625
       a =  1.500      CL = -0.1400
      Cm =  0.0055     CD =  0.04442   =>   CDf =  0.01346    CDp =  0.03096

 Side 1 forced transition at x/c =  1.0000   79
 Side 2 forced transition at x/c =  1.0000   83

   2   rms: 0.5677E-02   max: -.8199E-01   T at    3  2
       a =  1.500      CL = -0.1397
      Cm =  0.0056     CD =  0.04442   =>   CDf =  0.01347    CDp =  0.03094

 Side 1 forced transition at x/c =  1.0000   79
 Side 2 forced transition at x/c =  1.0000   83

   3   rms: 0.1733E-03   max: -.1999E-02   T at    3  2
       a =  1.500      CL = -0.1396
      Cm =  0.0056     CD =  0.04441   =>   CDf =  0.01348    CDp =  0.03093

 Side 1 forced transition at x/c =  1.0000   79
 Side 2 forced transition at x/c =  1.0000   83

   4   rms: 0.1055E-05   max: 0.5373E-05   D at   98  2
       a =  1.500      CL = -0.1396
      Cm =  0.0056     CD =  0.04441   =>   CDf =  0.01348    CDp =  0.03093
 plradd ia,ip,cpol           31          78  5.41778430E-02

 Point added to stored polar  1
 Save file unspecified or not available
 Dump file unspecified or not available

.OPERva   c>  
.OPERva   c>  
.OPERva   c>   Calculating wake trajectory ...
 Calculating source influence matrix ...

 Solving BL system ...

 Side 1 forced transition at x/c =  1.0000   79
 Side 2 forced transition at x/c =  1.0000   83

   1   rms: 0.1240E-01   max: 0.1584E+00   T at    3  2   RLX: 0.621
       a =  1.550      CL = -0.1391
      Cm =  0.0057     CD =  0.04441   =>   CDf =  0.01348    CDp =  0.03093

 Side 1 forced transition at x/c =  1.0000   79
 Side 2 forced transition at x/c =  1.0000   83

   2   rms: 0.4409E-02   max: 0.5530E-01   D at    3  2
       a =  1.550      CL = -0.1387
      Cm =  0.0058     CD =  0.04441   =>   CDf =  0.01349    CDp =  0.03092

 Side 1 forced transition at x/c =  1.0000   79
 Side 2 forced transition at x/c =  1.0000   83

   3   rms: 0.6689E-04   max: 0.6755E-03   C at   83  2
       a =  1.550      CL = -0.1386
      Cm =  0.0058     CD =  0.04441   =>   CDf =  0.01350    CDp =  0.03091
 plradd ia,ip,cpol           32          78  5.41778430E-02

 Point added to stored polar  1
 Save file unspecified or not available
 Dump file unspecified or not available

.OPERva   c>  
.OPERva   c>  
.OPERva   c>   Calculating wake trajectory ...
 Calculating source influence matrix ...

 Solving BL system ...

 Side 1 forced transition at x/c =  1.0000   79
 Side 2 forced transition at x/c =  1.0000   83

   1   rms: 0.7976E-02   max: -.7058E-01   D at    4  1   RLX: 0.617
       a =  1.600      CL = -0.1380
      Cm =  0.0059     CD =  0.04442   =>   CDf =  0.01350    CDp =  0.03092

 Side 1 forced transition at x/c =  1.0000   79
 Side 2 forced transition at x/c =  1.0000   83

   2   rms: 0.3050E-02   max: -.2662E-01   D at    4  1
       a =  1.600      CL = -0.1375
      Cm =  0.0059     CD =  0.04443   =>   CDf =  0.01351    CDp =  0.03091

 Side 1 forced transition at x/c =  1.0000   79
 Side 2 forced transition at x/c =  1.0000   83

   3   rms: 0.5799E-04   max: 0.6528E-03   C at   83  2
       a =  1.600      CL = -0.1374
      Cm =  0.0059     CD =  0.04442   =>   CDf =  0.01352    CDp =  0.03090
 plradd ia,ip,cpol           33          78  5.41778430E-02

 Point added to stored polar  1
 Save file unspecified or not available
 Dump file unspecified or not available

.OPERva   c>  
.OPERva   c>  
.OPERva   c>   Calculating wake trajectory ...
 Calculating source influence matrix ...

 Solving BL system ...

 Side 1 forced transition at x/c =  1.0000   79
 Side 2 forced transition at x/c =  1.0000   83

   1   rms: 0.1119E-01   max: -.1351E+00   D at    3  1   RLX: 0.613
       a =  1.650      CL = -0.1367
      Cm =  0.0060     CD =  0.04444   =>   CDf =  0.01352    CDp =  0.03092

 Side 1 forced transition at x/c =  1.0000   79
 Side 2 forced transition at x/c =  1.0000   83

   2   rms: 0.4471E-02   max: -.5265E-01   D at    3  1
       a =  1.650      CL = -0.1361
      Cm =  0.0060     CD =  0.04445   =>   CDf =  0.01353    CDp =  0.03091

 Side 1 forced transition at x/c =  1.0000   79
 Side 2 forced transition at x/c =  1.0000   83

   3   rms: 0.5846E-04   max: 0.6393E-03   C at   83  2
       a =  1.650      CL = -0.1360
      Cm =  0.0060     CD =  0.04444   =>   CDf =  0.01354    CDp =  0.03090
 plradd ia,ip,cpol           34          78  6.28640726E-02

 Point added to stored polar  1
 Save file unspecified or not available
 Dump file unspecified or not available

.OPERva   c>  
.OPERva   c>  
.OPERva   c>   Calculating wake trajectory ...
 Calculating source influence matrix ...

 Solving BL system ...

 Side 1 forced transition at x/c =  1.0000   79
 Side 2 forced transition at x/c =  1.0000   83

   1   rms: 0.1058E-01   max: 0.1011E+00   D at    4  2   RLX: 0.610
       a =  1.700      CL = -0.1352
      Cm =  0.0061     CD =  0.04447   =>   CDf =  0.01354    CDp =  0.03093

 Side 1 forced transition at x/c =  1.0000   79
 Side 2 forced transition at x/c =  1.0000   83

   2   rms: 0.4014E-02   max: 0.3977E-01   D at    4  2
       a =  1.700      CL = -0.1345
      Cm =  0.0061     CD =  0.04448   =>   CDf =  0.01355    CDp =  0.03092

 Side 1 forced transition at x/c =  1.0000   79
 Side 2 forced transition at x/c =  1.0000   83

   3   rms: 0.6827E-04   max: 0.6660E-03   C at   83  2
       a =  1.700      CL = -0.1345
      Cm =  0.0061     CD =  0.04447   =>   CDf =  0.01356    CDp =  0.03091
 plradd ia,ip,cpol           35          78  6.28640726E-02

 Point added to stored polar  1
 Save file unspecified or not available
 Dump file unspecified or not available

.OPERva   c>  
.OPERva   c>  
.OPERva   c>   Calculating wake trajectory ...
 Calculating source influence matrix ...

 Solving BL system ...

 Side 1 forced transition at x/c =  1.0000   79
 Side 2 forced transition at x/c =  1.0000   83

   1   rms: 0.1251E-01   max: -.1485E+00   T at    3  2   RLX: 0.607
       a =  1.750      CL = -0.1335
      Cm =  0.0062     CD =  0.04451   =>   CDf =  0.01368    CDp =  0.03082

 Side 1 forced transition at x/c =  1.0000   80
 Side 2 forced transition at x/c =  1.0000   82

   2   rms: 0.1861E-01   max: -.2996E+00   T at    2  1
       a =  1.750      CL = -0.1327
      Cm =  0.0062     CD =  0.04452   =>   CDf =  0.01358    CDp =  0.03094

 Side 1 forced transition at x/c =  1.0000   80
 Side 2 forced transition at x/c =  1.0000   82

   3   rms: 0.6346E-03   max: 0.6779E-02   D at    5  1
       a =  1.750      CL = -0.1327
      Cm =  0.0062     CD =  0.04452   =>   CDf =  0.01359    CDp =  0.03093

 Side 1 forced transition at x/c =  1.0000   80
 Side 2 forced transition at x/c =  1.0000   82

   4   rms: 0.1486E-05   max: -.1576E-04   D at    4  1
       a =  1.750      CL = -0.1327
      Cm =  0.0062     CD =  0.04452   =>   CDf =  0.01359    CDp =  0.03093
 plradd ia,ip,cpol           36          79  6.28640726E-02

 Point added to stored polar  1
 Save file unspecified or not available
 Dump file unspecified or not available

.OPERva   c>  
.OPERva   c>  
.OPERva   c>   Calculating wake trajectory ...
 Calculating source influence matrix ...

 Solving BL system ...

 Side 1 forced transition at x/c =  1.0000   80
 Side 2 forced transition at x/c =  1.0000   82

   1   rms: 0.1492E-01   max: -.2029E+00   D at    3  1   RLX: 0.604
       a =  1.800      CL = -0.1316
      Cm =  0.0062     CD =  0.04456   =>   CDf =  0.01359    CDp =  0.03096

 Side 1 forced transition at x/c =  1.0000   80
 Side 2 forced transition at x/c =  1.0000   82

   2   rms: 0.6505E-02   max: -.8663E-01   D at    3  1
       a =  1.800      CL = -0.1308
      Cm =  0.0062     CD =  0.04458   =>   CDf =  0.01361    CDp =  0.03097

 Side 1 forced transition at x/c =  1.0000   80
 Side 2 forced transition at x/c =  1.0000   82

   3   rms: 0.1225E-03   max: -.1740E-02   D at    3  1
       a =  1.800      CL = -0.1308
      Cm =  0.0062     CD =  0.04457   =>   CDf =  0.01361    CDp =  0.03096

 Side 1 forced transition at x/c =  1.0000   80
 Side 2 forced transition at x/c =  1.0000   82

   4   rms: 0.2359E-04   max: -.3185E-03   D at    4  1
       a =  1.800      CL = -0.1308
      Cm =  0.0062     CD =  0.04457   =>   CDf =  0.01361    CDp =  0.03096
 plradd ia,ip,cpol           37          79  6.28640726E-02

 Point added to stored polar  1
 Save file unspecified or not available
 Dump file unspecified or not available

.OPERva   c>  
.OPERva   c>  
.OPERva   c>   Calculating wake trajectory ...
 Calculating source influence matrix ...

 Solving BL system ...

 Side 1 forced transition at x/c =  1.0000   80
 Side 2 forced transition at x/c =  1.0000   82

   1   rms: 0.8629E-02   max: 0.8564E-01   D at    3  1   RLX: 0.601
       a =  1.850      CL = -0.1296
      Cm =  0.0062     CD =  0.04462   =>   CDf =  0.01361    CDp =  0.03100

 Side 1 forced transition at x/c =  1.0000   80
 Side 2 forced transition at x/c =  1.0000   82

   2   rms: 0.3381E-02   max: 0.3216E-01   D at    3  1
       a =  1.850      CL = -0.1287
      Cm =  0.0062     CD =  0.04464   =>   CDf =  0.01363    CDp =  0.03102

 Side 1 forced transition at x/c =  1.0000   80
 Side 2 forced transition at x/c =  1.0000   82

   3   rms: 0.6093E-04   max: 0.6754E-03   C at   82  2
       a =  1.850      CL = -0.1287
      Cm =  0.0062     CD =  0.04464   =>   CDf =  0.01364    CDp =  0.03100
 plradd ia,ip,cpol           38          79  6.28640726E-02

 Point added to stored polar  1
 Save file unspecified or not available
 Dump file unspecified or not available

.OPERva   c>  
.OPERva   c>  
.OPERva   c>   Calculating wake trajectory ...
 Calculating source influence matrix ...

 Solving BL system ...

 Side 1 forced transition at x/c =  1.0000   80
 Side 2 forced transition at x/c =  1.0000   82

   1   rms: 0.9551E-02   max: 0.8356E-01   D at    3  2   RLX: 0.598
       a =  1.900      CL = -0.1274
      Cm =  0.0062     CD =  0.04468   =>   CDf =  0.01363    CDp =  0.03105

 Side 1 forced transition at x/c =  1.0000   80
 Side 2 forced transition at x/c =  1.0000   82

   2   rms: 0.3730E-02   max: 0.3356E-01   D at    3  2
       a =  1.900      CL = -0.1265
      Cm =  0.0062     CD =  0.04471   =>   CDf =  0.01365    CDp =  0.03106

 Side 1 forced transition at x/c =  1.0000   80
 Side 2 forced transition at x/c =  1.0000   82

   3   rms: 0.5647E-04   max: 0.6660E-03   C at   82  2
       a =  1.900      CL = -0.1264
      Cm =  0.0062     CD =  0.04471   =>   CDf =  0.01366    CDp =  0.03105
 plradd ia,ip,cpol           39          79  6.28640726E-02

 Point added to stored polar  1
 Save file unspecified or not available
 Dump file unspecified or not available

.OPERva   c>  
.OPERva   c>  
.OPERva   c>   Calculating wake trajectory ...
 Calculating source influence matrix ...

 Solving BL system ...

 Side 1 forced transition at x/c =  1.0000   80
 Side 2 forced transition at x/c =  1.0000   82

   1   rms: 0.1237E-01   max: -.1297E+00   D at    3  1   RLX: 0.595
       a =  1.950      CL = -0.1251
      Cm =  0.0062     CD =  0.04476   =>   CDf =  0.01366    CDp =  0.03110

 Side 1 forced transition at x/c =  1.0000   80
 Side 2 forced transition at x/c =  1.0000   82

   2   rms: 0.5099E-02   max: -.5118E-01   D at    3  1
       a =  1.950      CL = -0.1241
      Cm =  0.0061     CD =  0.04480   =>   CDf =  0.01367    CDp =  0.03112

 Side 1 forced transition at x/c =  1.0000   80
 Side 2 forced transition at x/c =  1.0000   82

   3   rms: 0.6935E-04   max: 0.6538E-03   C at   82  2
       a =  1.950      CL = -0.1241
      Cm =  0.0061     CD =  0.04479   =>   CDf =  0.01368    CDp =  0.03111
 plradd ia,ip,cpol           40          79  6.28640726E-02

 Point added to stored polar  1
 Save file unspecified or not available
 Dump file unspecified or not available

.OPERva   c>  
.OPERva   c>  
.OPERva   c>   Calculating wake trajectory ...
 Calculating source influence matrix ...

 Solving BL system ...

 Side 1 forced transition at x/c =  1.0000   80
 Side 2 forced transition at x/c =  1.0000   82

   1   rms: 0.1116E-01   max: -.1320E+00   D at    4  1   RLX: 0.593
       a =  2.000      CL = -0.1227
      Cm =  0.0061     CD =  0.04485   =>   CDf =  0.01368    CDp =  0.03117

 Side 1 forced transition at x/c =  1.0000   80
 Side 2 forced transition at x/c =  1.0000   82

   2   rms: 0.4553E-02   max: -.5308E-01   D at    4  1
       a =  2.000      CL = -0.1216
      Cm =  0.0061     CD =  0.04489   =>   CDf =  0.01370    CDp =  0.03119

 Side 1 forced transition at x/c =  1.0000   80
 Side 2 forced transition at x/c =  1.0000   82

   3   rms: 0.6254E-04   max: 0.6141E-03   C at   82  2
       a =  2.000      CL = -0.1216
      Cm =  0.0061     CD =  0.04488   =>   CDf =  0.01370    CDp =  0.03117
 plradd ia,ip,cpol           41          79  6.28640726E-02

 Point added to stored polar  1
 Save file unspecified or not available
 Dump file unspecified or not available

.OPERva   c>  
.OPERva   c>  
.OPERva   c>   Calculating wake trajectory ...
 Calculating source influence matrix ...

 Solving BL system ...

 Side 1 forced transition at x/c =  1.0000   80
 Side 2 forced transition at x/c =  1.0000   82

   1   rms: 0.1160E-01   max: 0.1129E+00   D at    4  1   RLX: 0.590
       a =  2.050      CL = -0.1201
      Cm =  0.0060     CD =  0.04494   =>   CDf =  0.01370    CDp =  0.03124

 Side 1 forced transition at x/c =  1.0000   80
 Side 2 forced transition at x/c =  1.0000   82

   2   rms: 0.4690E-02   max: 0.4451E-01   D at    4  1
       a =  2.050      CL = -0.1190
      Cm =  0.0060     CD =  0.04498   =>   CDf =  0.01372    CDp =  0.03127

 Side 1 forced transition at x/c =  1.0000   80
 Side 2 forced transition at x/c =  1.0000   82

   3   rms: 0.5705E-04   max: 0.5805E-03   C at   82  2
       a =  2.050      CL = -0.1190
      Cm =  0.0060     CD =  0.04498   =>   CDf =  0.01373    CDp =  0.03125
 plradd ia,ip,cpol           42          79  6.28640726E-02

 Point added to stored polar  1
 Save file unspecified or not available
 Dump file unspecified or not available

.OPERva   c>  
.OPERva   c>  
.OPERva   c>   Calculating wake trajectory ...
 Calculating source influence matrix ...

 Solving BL system ...

 Side 1 forced transition at x/c =  1.0000   80
 Side 2 forced transition at x/c =  1.0000   82

   1   rms: 0.1138E-01   max: 0.9837E-01   D at    3  1   RLX: 0.588
       a =  2.100      CL = -0.1175
      Cm =  0.0059     CD =  0.04505   =>   CDf =  0.01373    CDp =  0.03132

 Side 1 forced transition at x/c =  1.0000   80
 Side 2 forced transition at x/c =  1.0000   82

   2   rms: 0.4402E-02   max: 0.3473E-01   D at    3  1
       a =  2.100      CL = -0.1163
      Cm =  0.0059     CD =  0.04510   =>   CDf =  0.01374    CDp =  0.03135

 Side 1 forced transition at x/c =  1.0000   80
 Side 2 forced transition at x/c =  1.0000   82

   3   rms: 0.6356E-04   max: -.5182E-03   D at    3  1
       a =  2.100      CL = -0.1163
      Cm =  0.0059     CD =  0.04509   =>   CDf =  0.01375    CDp =  0.03134
 plradd ia,ip,cpol           43          79  6.28640726E-02

 Point added to stored polar  1
 Save file unspecified or not available
 Dump file unspecified or not available

.OPERva   c>  
.OPERva   c>  
.OPERva   c>   Calculating wake trajectory ...
 Calculating source influence matrix ...

 Solving BL system ...

 Side 1 forced transition at x/c =  1.0000   80
 Side 2 forced transition at x/c =  1.0000   82

   1   rms: 0.1293E-01   max: -.1518E+00   D at    3  2   RLX: 0.586
       a =  2.150      CL = -0.1147
      Cm =  0.0058     CD =  0.04516   =>   CDf =  0.01375    CDp =  0.03141

 Side 1 forced transition at x/c =  1.0000   80
 Side 2 forced transition at x/c =  1.0000   82

   2   rms: 0.5707E-02   max: -.6801E-01   D at    3  2
       a =  2.150      CL = -0.1135
      Cm =  0.0057     CD =  0.04521   =>   CDf =  0.01376    CDp =  0.03145

 Side 1 forced transition at x/c =  1.0000   80
 Side 2 forced transition at x/c =  1.0000   82

   3   rms: 0.8496E-04   max: -.9451E-03   D at    3  2
       a =  2.150      CL = -0.1135
      Cm =  0.0057     CD =  0.04520   =>   CDf =  0.01377    CDp =  0.03143
 plradd ia,ip,cpol           44          79  6.28640726E-02

 Point added to stored polar  1
 Save file unspecified or not available
 Dump file unspecified or not available

.OPERva   c>  
.OPERva   c>  
.OPERva   c>   Calculating wake trajectory ...
 Calculating source influence matrix ...

 Solving BL system ...

 Side 1 forced transition at x/c =  1.0000   80
 Side 2 forced transition at x/c =  1.0000   82

   1   rms: 0.8375E-02   max: -.6729E-01   D at    4  2   RLX: 0.583
       a =  2.200      CL = -0.1119
      Cm =  0.0057     CD =  0.04528   =>   CDf =  0.01377    CDp =  0.03151

 Side 1 forced transition at x/c =  1.0000   80
 Side 2 forced transition at x/c =  1.0000   82

   2   rms: 0.3553E-02   max: -.2953E-01   D at    4  2
       a =  2.200      CL = -0.1107
      Cm =  0.0056     CD =  0.04533   =>   CDf =  0.01379    CDp =  0.03155

 Side 1 forced transition at x/c =  1.0000   80
 Side 2 forced transition at x/c =  1.0000   82

   3   rms: 0.4376E-04   max: 0.3964E-03   C at   82  2
       a =  2.200      CL = -0.1106
      Cm =  0.0056     CD =  0.04533   =>   CDf =  0.01380    CDp =  0.03153
 plradd ia,ip,cpol           45          79  6.28640726E-02

 Point added to stored polar  1
 Save file unspecified or not available
 Dump file unspecified or not available

.OPERva   c>  
.OPERva   c>  
.OPERva   c>   Calculating wake trajectory ...
 Calculating source influence matrix ...

 Solving BL system ...

 Side 1 forced transition at x/c =  1.0000   80
 Side 2 forced transition at x/c =  1.0000   82

   1   rms: 0.7444E-02   max: -.6131E-01   D at    4  1   RLX: 0.581
       a =  2.250      CL = -0.1090
      Cm =  0.0055     CD =  0.04541   =>   CDf =  0.01380    CDp =  0.03162

 Side 1 forced transition at x/c =  1.0000   80
 Side 2 forced transition at x/c =  1.0000   82

   2   rms: 0.3105E-02   max: -.2518E-01   D at    4  1
       a =  2.250      CL = -0.1077
      Cm =  0.0055     CD =  0.04546   =>   CDf =  0.01381    CDp =  0.03165

 Side 1 forced transition at x/c =  1.0000   80
 Side 2 forced transition at x/c =  1.0000   82

   3   rms: 0.3567E-04   max: 0.3502E-03   C at   82  2
       a =  2.250      CL = -0.1077
      Cm =  0.0055     CD =  0.04546   =>   CDf =  0.01382    CDp =  0.03164
 plradd ia,ip,cpol           46          79  6.28640726E-02

 Point added to stored polar  1
 Save file unspecified or not available
 Dump file unspecified or not available

.OPERva   c>  
.OPERva   c>  
.OPERva   c>   Calculating wake trajectory ...
 Calculating source influence matrix ...

 Solving BL system ...

 Side 1 forced transition at x/c =  1.0000   80
 Side 2 forced transition at x/c =  1.0000   82

   1   rms: 0.1129E-01   max: 0.9881E-01   D at    3  2   RLX: 0.579
       a =  2.300      CL = -0.1060
      Cm =  0.0054     CD =  0.04555   =>   CDf =  0.01382    CDp =  0.03173

 Side 1 forced transition at x/c =  1.0000   80
 Side 2 forced transition at x/c =  1.0000   82

   2   rms: 0.4673E-02   max: 0.4192E-01   D at    3  2
       a =  2.300      CL = -0.1047
      Cm =  0.0053     CD =  0.04560   =>   CDf =  0.01383    CDp =  0.03177

 Side 1 forced transition at x/c =  1.0000   80
 Side 2 forced transition at x/c =  1.0000   82

   3   rms: 0.4481E-04   max: 0.3460E-03   C at   82  2
       a =  2.300      CL = -0.1047
      Cm =  0.0053     CD =  0.04559   =>   CDf =  0.01384    CDp =  0.03175
 plradd ia,ip,cpol           47          79  6.28640726E-02

 Point added to stored polar  1
 Save file unspecified or not available
 Dump file unspecified or not available

.OPERva   c>  
.OPERva   c>  
.OPERva   c>   Calculating wake trajectory ...
 Calculating source influence matrix ...

 Solving BL system ...

 Side 1 forced transition at x/c =  1.0000   80
 Side 2 forced transition at x/c =  1.0000   82

   1   rms: 0.8886E-02   max: 0.5992E-01   D at    4  2   RLX: 0.577
       a =  2.350      CL = -0.1029
      Cm =  0.0052     CD =  0.04569   =>   CDf =  0.01384    CDp =  0.03184

 Side 1 forced transition at x/c =  1.0000   80
 Side 2 forced transition at x/c =  1.0000   82

   2   rms: 0.3787E-02   max: 0.2622E-01   D at    4  2
       a =  2.350      CL = -0.1016
      Cm =  0.0051     CD =  0.04575   =>   CDf =  0.01386    CDp =  0.03189

 Side 1 forced transition at x/c =  1.0000   80
 Side 2 forced transition at x/c =  1.0000   82

   3   rms: 0.3595E-04   max: 0.2998E-03   C at   82  2
       a =  2.350      CL = -0.1016
      Cm =  0.0051     CD =  0.04574   =>   CDf =  0.01387    CDp =  0.03187
 plradd ia,ip,cpol           48          79  6.28640726E-02

 Point added to stored polar  1
 Save file unspecified or not available
 Dump file unspecified or not available

.OPERva   c>  
.OPERva   c>  
.OPERva   c>   Calculating wake trajectory ...
 Calculating source influence matrix ...

 Solving BL system ...

 Side 1 forced transition at x/c =  1.0000   80
 Side 2 forced transition at x/c =  1.0000   82

   1   rms: 0.8579E-02   max: -.8008E-01   D at    4  1   RLX: 0.575
       a =  2.400      CL = -0.0998
      Cm =  0.0050     CD =  0.04583   =>   CDf =  0.01387    CDp =  0.03197

 Side 1 forced transition at x/c =  1.0000   80
 Side 2 forced transition at x/c =  1.0000   82

   2   rms: 0.3633E-02   max: -.3352E-01   D at    4  1
       a =  2.400      CL = -0.0984
      Cm =  0.0050     CD =  0.04589   =>   CDf =  0.01388    CDp =  0.03201

 Side 1 forced transition at x/c =  1.0000   80
 Side 2 forced transition at x/c =  1.0000   82

   3   rms: 0.3514E-04   max: 0.2867E-03   C at   82  2
       a =  2.400      CL = -0.0984
      Cm =  0.0050     CD =  0.04589   =>   CDf =  0.01389    CDp =  0.03200
 plradd ia,ip,cpol           49          79  6.28640726E-02

 Point added to stored polar  1
 Save file unspecified or not available
 Dump file unspecified or not available

.OPERva   c>  
.OPERva   c>  
.OPERva   c>   Calculating wake trajectory ...
 Calculating source influence matrix ...

 Solving BL system ...

 Side 1 forced transition at x/c =  1.0000   80
 Side 2 forced transition at x/c =  1.0000   82

   1   rms: 0.1052E-01   max: 0.1064E+00   D at    4  1   RLX: 0.573
       a =  2.450      CL = -0.0966
      Cm =  0.0049     CD =  0.04599   =>   CDf =  0.01389    CDp =  0.03210

 Side 1 forced transition at x/c =  1.0000   80
 Side 2 forced transition at x/c =  1.0000   82

   2   rms: 0.4331E-02   max: 0.4287E-01   D at    4  1
       a =  2.450      CL = -0.0952
      Cm =  0.0048     CD =  0.04605   =>   CDf =  0.01390    CDp =  0.03215

 Side 1 forced transition at x/c =  1.0000   80
 Side 2 forced transition at x/c =  1.0000   82

   3   rms: 0.4794E-04   max: -.5729E-03   D at    4  1
       a =  2.450      CL = -0.0952
      Cm =  0.0048     CD =  0.04604   =>   CDf =  0.01391    CDp =  0.03213
 plradd ia,ip,cpol           50          79  6.28640726E-02

 Point added to stored polar  1
 Save file unspecified or not available
 Dump file unspecified or not available

.OPERva   c>  
.OPERva   c>  
.OPERva   c>   Calculating wake trajectory ...
 Calculating source influence matrix ...

 Solving BL system ...

 Side 1 forced transition at x/c =  1.0000   80
 Side 2 forced transition at x/c =  1.0000   82

   1   rms: 0.1261E-01   max: -.1579E+00   D at    3  2   RLX: 0.571
       a =  2.500      CL = -0.0934
      Cm =  0.0047     CD =  0.04615   =>   CDf =  0.01391    CDp =  0.03223

 Side 1 forced transition at x/c =  1.0000   80
 Side 2 forced transition at x/c =  1.0000   82

   2   rms: 0.5815E-02   max: -.7379E-01   D at    3  2
       a =  2.500      CL = -0.0920
      Cm =  0.0046     CD =  0.04621   =>   CDf =  0.01393    CDp =  0.03229

 Side 1 forced transition at x/c =  1.0000   80
 Side 2 forced transition at x/c =  1.0000   82

   3   rms: 0.1150E-03   max: -.1724E-02   T at    3  2
       a =  2.500      CL = -0.0920
      Cm =  0.0046     CD =  0.04620   =>   CDf =  0.01394    CDp =  0.03227

 Side 1 forced transition at x/c =  1.0000   80
 Side 2 forced transition at x/c =  1.0000   82

   4   rms: 0.6987E-06   max: 0.6198E-05   D at   97  2
       a =  2.500      CL = -0.0920
      Cm =  0.0046     CD =  0.04620   =>   CDf =  0.01394    CDp =  0.03227
 plradd ia,ip,cpol           51          79  6.28640726E-02

 Point added to stored polar  1
 Save file unspecified or not available
 Dump file unspecified or not available

.OPERva   c>  
.OPERva   c>  
.OPERva   c>   Calculating wake trajectory ...
 Calculating source influence matrix ...

 Solving BL system ...

 Side 1 forced transition at x/c =  1.0000   80
 Side 2 forced transition at x/c =  1.0000   82

   1   rms: 0.1015E-01   max: 0.1196E+00   D at    3  1   RLX: 0.569
       a =  2.550      CL = -0.0901
      Cm =  0.0045     CD =  0.04631   =>   CDf =  0.01394    CDp =  0.03237

 Side 1 forced transition at x/c =  1.0000   80
 Side 2 forced transition at x/c =  1.0000   82

   2   rms: 0.4160E-02   max: 0.4758E-01   D at    3  1
       a =  2.550      CL = -0.0887
      Cm =  0.0044     CD =  0.04638   =>   CDf =  0.01395    CDp =  0.03243

 Side 1 forced transition at x/c =  1.0000   80
 Side 2 forced transition at x/c =  1.0000   82

   3   rms: 0.6322E-04   max: -.8429E-03   D at    3  1
       a =  2.550      CL = -0.0887
      Cm =  0.0044     CD =  0.04637   =>   CDf =  0.01396    CDp =  0.03241
 plradd ia,ip,cpol           52          79  6.28640726E-02

 Point added to stored polar  1
 Save file unspecified or not available
 Dump file unspecified or not available

.OPERva   c>  
.OPERva   c>  
.OPERva   c>   Calculating wake trajectory ...
 Calculating source influence matrix ...

 Solving BL system ...

 Side 1 forced transition at x/c =  1.0000   80
 Side 2 forced transition at x/c =  1.0000   82

   1   rms: 0.1137E-01   max: 0.1192E+00   D at    3  2   RLX: 0.568
       a =  2.600      CL = -0.0868
      Cm =  0.0043     CD =  0.04648   =>   CDf =  0.01396    CDp =  0.03252

 Side 1 forced transition at x/c =  1.0000   80
 Side 2 forced transition at x/c =  1.0000   82

   2   rms: 0.4956E-02   max: 0.5358E-01   D at    3  2
       a =  2.600      CL = -0.0854
      Cm =  0.0042     CD =  0.04655   =>   CDf =  0.01397    CDp =  0.03258

 Side 1 forced transition at x/c =  1.0000   80
 Side 2 forced transition at x/c =  1.0000   82

   3   rms: 0.3589E-04   max: 0.2452E-03   D at    6  2
       a =  2.600      CL = -0.0853
      Cm =  0.0042     CD =  0.04654   =>   CDf =  0.01398    CDp =  0.03256
 plradd ia,ip,cpol           53          79  7.28383735E-02

 Point added to stored polar  1
 Save file unspecified or not available
 Dump file unspecified or not available

.OPERva   c>  
.OPERva   c>  
.OPERva   c>   Calculating wake trajectory ...
 Calculating source influence matrix ...

 Solving BL system ...

 Side 1 forced transition at x/c =  1.0000   80
 Side 2 forced transition at x/c =  1.0000   82

   1   rms: 0.1129E-01   max: -.1189E+00   D at    3  2   RLX: 0.566
       a =  2.650      CL = -0.0835
      Cm =  0.0041     CD =  0.04665   =>   CDf =  0.01398    CDp =  0.03267

 Side 1 forced transition at x/c =  1.0000   80
 Side 2 forced transition at x/c =  1.0000   82

   2   rms: 0.5162E-02   max: -.5564E-01   T at    3  2
       a =  2.650      CL = -0.0820
      Cm =  0.0040     CD =  0.04673   =>   CDf =  0.01399    CDp =  0.03273

 Side 1 forced transition at x/c =  1.0000   80
 Side 2 forced transition at x/c =  1.0000   82

   3   rms: 0.2299E-03   max: 0.2588E-02   D at    4  2
       a =  2.650      CL = -0.0820
      Cm =  0.0040     CD =  0.04672   =>   CDf =  0.01400    CDp =  0.03271

 Side 1 forced transition at x/c =  1.0000   80
 Side 2 forced transition at x/c =  1.0000   82

   4   rms: 0.1890E-05   max: 0.2348E-04   D at    4  2
       a =  2.650      CL = -0.0820
      Cm =  0.0040     CD =  0.04672   =>   CDf =  0.01400    CDp =  0.03272
 plradd ia,ip,cpol           54          79  7.28383735E-02

 Point added to stored polar  1
 Save file unspecified or not available
 Dump file unspecified or not available

.OPERva   c>  
.OPERva   c>  
.OPERva   c>   Calculating wake trajectory ...
 Calculating source influence matrix ...

 Solving BL system ...

 Side 1 forced transition at x/c =  1.0000   80
 Side 2 forced transition at x/c =  1.0000   82

   1   rms: 0.1005E-01   max: 0.9958E-01   T at    3  2   RLX: 0.564
       a =  2.700      CL = -0.0801
      Cm =  0.0039     CD =  0.04683   =>   CDf =  0.01400    CDp =  0.03283

 Side 1 forced transition at x/c =  1.0000   80
 Side 2 forced transition at x/c =  1.0000   82

   2   rms: 0.4376E-02   max: 0.4394E-01   T at    3  2
       a =  2.700      CL = -0.0786
      Cm =  0.0038     CD =  0.04691   =>   CDf =  0.01402    CDp =  0.03289

 Side 1 forced transition at x/c =  1.0000   80
 Side 2 forced transition at x/c =  1.0000   82

   3   rms: 0.3372E-04   max: -.2373E-03   D at    7  2
       a =  2.700      CL = -0.0786
      Cm =  0.0038     CD =  0.04690   =>   CDf =  0.01403    CDp =  0.03287
 plradd ia,ip,cpol           55          79  7.28383735E-02

 Point added to stored polar  1
 Save file unspecified or not available
 Dump file unspecified or not available

.OPERva   c>  
.OPERva   c>  
.OPERva   c>   Calculating wake trajectory ...
 Calculating source influence matrix ...

 Solving BL system ...

 Side 1 forced transition at x/c =  1.0000   80
 Side 2 forced transition at x/c =  1.0000   82

   1   rms: 0.1182E-01   max: -.1354E+00   D at    4  2   RLX: 0.562
       a =  2.750      CL = -0.0767
      Cm =  0.0037     CD =  0.04702   =>   CDf =  0.01406    CDp =  0.03296

 Side 1 forced transition at x/c =  1.0000   81
 Side 2 forced transition at x/c =  1.0000   81

   2   rms: 0.1526E-01   max: -.2544E+00   D at    2  1
       a =  2.750      CL = -0.0752
      Cm =  0.0036     CD =  0.04710   =>   CDf =  0.01404    CDp =  0.03305

 Side 1 forced transition at x/c =  1.0000   81
 Side 2 forced transition at x/c =  1.0000   81

   3   rms: 0.3009E-02   max: -.4125E-01   D at    4  1
       a =  2.750      CL = -0.0752
      Cm =  0.0036     CD =  0.04709   =>   CDf =  0.01405    CDp =  0.03303

 Side 1 forced transition at x/c =  1.0000   81
 Side 2 forced transition at x/c =  1.0000   81

   4   rms: 0.3008E-04   max: 0.3886E-03   D at    6  1
       a =  2.750      CL = -0.0752
      Cm =  0.0036     CD =  0.04709   =>   CDf =  0.01405    CDp =  0.03303
 plradd ia,ip,cpol           56          80  0.20451273    

 Point added to stored polar  1
 Save file unspecified or not available
 Dump file unspecified or not available

.OPERva   c>  
.OPERva   c>  
.OPERva   c>   Calculating wake trajectory ...
 Calculating source influence matrix ...

 Solving BL system ...

 Side 1 forced transition at x/c =  1.0000   81
 Side 2 forced transition at x/c =  1.0000   81

   1   rms: 0.1640E-01   max: 0.1753E+00   D at    3  2   RLX: 0.561
       a =  2.800      CL = -0.0732
      Cm =  0.0034     CD =  0.04720   =>   CDf =  0.01405    CDp =  0.03315

 Side 1 forced transition at x/c =  1.0000   81
 Side 2 forced transition at x/c =  1.0000   81

   2   rms: 0.6502E-02   max: 0.7489E-01   D at    3  2
       a =  2.800      CL = -0.0717
      Cm =  0.0033     CD =  0.04728   =>   CDf =  0.01407    CDp =  0.03322

 Side 1 forced transition at x/c =  1.0000   81
 Side 2 forced transition at x/c =  1.0000   81

   3   rms: 0.8513E-04   max: 0.8266E-03   D at    5  2
       a =  2.800      CL = -0.0717
      Cm =  0.0033     CD =  0.04727   =>   CDf =  0.01408    CDp =  0.03320
 plradd ia,ip,cpol           57          80  0.20451273    

 Point added to stored polar  1
 Save file unspecified or not available
 Dump file unspecified or not available

.OPERva   c>  
.OPERva   c>  
.OPERva   c>   Calculating wake trajectory ...
 Calculating source influence matrix ...

 Solving BL system ...

 Side 1 forced transition at x/c =  1.0000   81
 Side 2 forced transition at x/c =  1.0000   81

   1   rms: 0.1092E-01   max: -.1057E+00   D at    3  1   RLX: 0.559
       a =  2.850      CL = -0.0698
      Cm =  0.0032     CD =  0.04740   =>   CDf =  0.01408    CDp =  0.03332

 Side 1 forced transition at x/c =  1.0000   81
 Side 2 forced transition at x/c =  1.0000   81

   2   rms: 0.4856E-02   max: -.4642E-01   D at    3  1
       a =  2.850      CL = -0.0683
      Cm =  0.0031     CD =  0.04748   =>   CDf =  0.01409    CDp =  0.03339

 Side 1 forced transition at x/c =  1.0000   81
 Side 2 forced transition at x/c =  1.0000   81

   3   rms: 0.4094E-04   max: -.3721E-03   D at    6  1
       a =  2.850      CL = -0.0683
      Cm =  0.0031     CD =  0.04747   =>   CDf =  0.01410    CDp =  0.03337
 plradd ia,ip,cpol           58          80  0.20451273    

 Point added to stored polar  1
 Save file unspecified or not available
 Dump file unspecified or not available

.OPERva   c>  
.OPERva   c>  
.OPERva   c>   Calculating wake trajectory ...
 Calculating source influence matrix ...

 Solving BL system ...

 Side 1 forced transition at x/c =  1.0000   81
 Side 2 forced transition at x/c =  1.0000   81

   1   rms: 0.6975E-02   max: -.3231E-01   C at   81  2   RLX: 0.557
       a =  2.900      CL = -0.0663
      Cm =  0.0030     CD =  0.04759   =>   CDf =  0.01410    CDp =  0.03350

 Side 1 forced transition at x/c =  1.0000   81
 Side 2 forced transition at x/c =  1.0000   81

   2   rms: 0.3092E-02   max: -.1403E-01   C at   81  2
       a =  2.900      CL = -0.0648
      Cm =  0.0029     CD =  0.04768   =>   CDf =  0.01411    CDp =  0.03357

 Side 1 forced transition at x/c =  1.0000   81
 Side 2 forced transition at x/c =  1.0000   81

   3   rms: 0.2585E-04   max: 0.1833E-03   D at   73  2
       a =  2.900      CL = -0.0648
      Cm =  0.0029     CD =  0.04767   =>   CDf =  0.01412    CDp =  0.03355
 plradd ia,ip,cpol           59          80  0.20451273    

 Point added to stored polar  1
 Save file unspecified or not available
 Dump file unspecified or not available

.OPERva   c>  
.OPERva   c>  
.OPERva   c>   Calculating wake trajectory ...
 Calculating source influence matrix ...

 Solving BL system ...

 Side 1 forced transition at x/c =  1.0000   81
 Side 2 forced transition at x/c =  1.0000   81

   1   rms: 0.9630E-02   max: -.9822E-01   D at    3  2   RLX: 0.556
       a =  2.950      CL = -0.0629
      Cm =  0.0028     CD =  0.04779   =>   CDf =  0.01412    CDp =  0.03368

 Side 1 forced transition at x/c =  1.0000   81
 Side 2 forced transition at x/c =  1.0000   81

   2   rms: 0.4271E-02   max: -.4360E-01   D at    3  2
       a =  2.950      CL = -0.0613
      Cm =  0.0027     CD =  0.04788   =>   CDf =  0.01413    CDp =  0.03375

 Side 1 forced transition at x/c =  1.0000   81
 Side 2 forced transition at x/c =  1.0000   81

   3   rms: 0.4223E-04   max: -.3857E-03   D at    3  2
       a =  2.950      CL = -0.0613
      Cm =  0.0027     CD =  0.04787   =>   CDf =  0.01414    CDp =  0.03373
 plradd ia,ip,cpol           60          80  0.20451273    

[...]
 Side 2 forced transition at x/c =  1.0000   77

   3   rms: 0.5467E-04   max: 0.4915E-03   D at   92  2
       a =  6.700      CL =  0.1857
      Cm = -0.0138     CD =  0.07097   =>   CDf =  0.01467    CDp =  0.05630
 plradd ia,ip,cpol          135          84  9.14681777E-02

 Point added to stored polar  1
 Save file unspecified or not available
 Dump file unspecified or not available

.OPERva   c>  
.OPERva   c>  
.OPERva   c>   Calculating wake trajectory ...
 Calculating source influence matrix ...

 Solving BL system ...

 Side 1 forced transition at x/c =  1.0000   85
 Side 2 forced transition at x/c =  1.0000   77

   1   rms: 0.9065E-02   max: -.6818E-01   D at    3  2   RLX: 0.449
       a =  6.750      CL =  0.1869
      Cm = -0.0139     CD =  0.07118   =>   CDf =  0.01467    CDp =  0.05651

 Side 1 forced transition at x/c =  1.0000   85
 Side 2 forced transition at x/c =  1.0000   77

   2   rms: 0.5122E-02   max: -.3981E-01   D at    3  2
       a =  6.750      CL =  0.1885
      Cm = -0.0140     CD =  0.07141   =>   CDf =  0.01467    CDp =  0.05674

 Side 1 forced transition at x/c =  1.0000   85
 Side 2 forced transition at x/c =  1.0000   77

   3   rms: 0.7176E-04   max: -.4959E-03   D at    4  1
       a =  6.750      CL =  0.1885
      Cm = -0.0140     CD =  0.07138   =>   CDf =  0.01467    CDp =  0.05671
 plradd ia,ip,cpol          136          84  9.14681777E-02

 Point added to stored polar  1
 Save file unspecified or not available
 Dump file unspecified or not available

.OPERva   c>  
.OPERva   c>  
.OPERva   c>   Calculating wake trajectory ...
 Calculating source influence matrix ...

 Solving BL system ...

 Side 1 forced transition at x/c =  1.0000   85
 Side 2 forced transition at x/c =  1.0000   77

   1   rms: 0.1611E-01   max: 0.1474E+00   T at    3  1   RLX: 0.448
       a =  6.800      CL =  0.1898
      Cm = -0.0141     CD =  0.07158   =>   CDf =  0.01467    CDp =  0.05691

 Side 1 forced transition at x/c =  1.0000   85
 Side 2 forced transition at x/c =  1.0000   77

   2   rms: 0.8023E-02   max: 0.7037E-01   D at    3  1
       a =  6.800      CL =  0.1915
      Cm = -0.0142     CD =  0.07181   =>   CDf =  0.01467    CDp =  0.05714

 Side 1 forced transition at x/c =  1.0000   85
 Side 2 forced transition at x/c =  1.0000   77

   3   rms: 0.1554E-03   max: -.1384E-02   D at    6  2
       a =  6.800      CL =  0.1915
      Cm = -0.0142     CD =  0.07177   =>   CDf =  0.01466    CDp =  0.05711

 Side 1 forced transition at x/c =  1.0000   85
 Side 2 forced transition at x/c =  1.0000   77

   4   rms: 0.1358E-05   max: -.1612E-04   D at    3  1
       a =  6.800      CL =  0.1915
      Cm = -0.0142     CD =  0.07177   =>   CDf =  0.01466    CDp =  0.05711
 plradd ia,ip,cpol          137          84  9.14681777E-02

 Point added to stored polar  1
 Save file unspecified or not available
 Dump file unspecified or not available

.OPERva   c>  
.OPERva   c>  
.OPERva   c>   Calculating wake trajectory ...
 Calculating source influence matrix ...

 Solving BL system ...

 Side 1 forced transition at x/c =  1.0000   85
 Side 2 forced transition at x/c =  1.0000   77

   1   rms: 0.7036E-02   max: 0.5933E-01   D at    6  1   RLX: 0.447
       a =  6.850      CL =  0.1927
      Cm = -0.0143     CD =  0.07199   =>   CDf =  0.01466    CDp =  0.05732

 Side 1 forced transition at x/c =  1.0000   85
 Side 2 forced transition at x/c =  1.0000   77

   2   rms: 0.3852E-02   max: 0.3222E-01   D at    6  1
       a =  6.850      CL =  0.1943
      Cm = -0.0145     CD =  0.07222   =>   CDf =  0.01466    CDp =  0.05756

 Side 1 forced transition at x/c =  1.0000   85
 Side 2 forced transition at x/c =  1.0000   77

   3   rms: 0.5378E-04   max: 0.5128E-03   D at   92  2
       a =  6.850      CL =  0.1943
      Cm = -0.0144     CD =  0.07218   =>   CDf =  0.01465    CDp =  0.05753
 plradd ia,ip,cpol          138          84  9.14681777E-02

 Point added to stored polar  1
 Save file unspecified or not available
 Dump file unspecified or not available

.OPERva   c>  
.OPERva   c>  
.OPERva   c>   Calculating wake trajectory ...
 Calculating source influence matrix ...

 Solving BL system ...

 Side 1 forced transition at x/c =  1.0000   85
 Side 2 forced transition at x/c =  1.0000   77

   1   rms: 0.8990E-02   max: 0.9531E-01   D at    3  1   RLX: 0.445
       a =  6.900      CL =  0.1956
      Cm = -0.0145     CD =  0.07240   =>   CDf =  0.01465    CDp =  0.05774

 Side 1 forced transition at x/c =  1.0000   85
 Side 2 forced transition at x/c =  1.0000   77

   2   rms: 0.4976E-02   max: 0.5285E-01   D at    3  1
       a =  6.900      CL =  0.1972
      Cm = -0.0147     CD =  0.07263   =>   CDf =  0.01465    CDp =  0.05798

 Side 1 forced transition at x/c =  1.0000   85
 Side 2 forced transition at x/c =  1.0000   77

   3   rms: 0.8805E-04   max: -.8961E-03   D at    3  1
       a =  6.900      CL =  0.1972
      Cm = -0.0147     CD =  0.07260   =>   CDf =  0.01465    CDp =  0.05795
 plradd ia,ip,cpol          139          84  9.14681777E-02

 Point added to stored polar  1
 Save file unspecified or not available
 Dump file unspecified or not available

.OPERva   c>  
.OPERva   c>  
.OPERva   c>   Calculating wake trajectory ...
 Calculating source influence matrix ...

 Solving BL system ...

 Side 1 forced transition at x/c =  1.0000   85
 Side 2 forced transition at x/c =  1.0000   77

   1   rms: 0.1118E-01   max: -.1532E+00   D at    3  1   RLX: 0.444
       a =  6.950      CL =  0.1984
      Cm = -0.0148     CD =  0.07281   =>   CDf =  0.01465    CDp =  0.05816

 Side 1 forced transition at x/c =  1.0000   85
 Side 2 forced transition at x/c =  1.0000   77

   2   rms: 0.6255E-02   max: -.8395E-01   D at    3  1
       a =  6.950      CL =  0.2001
      Cm = -0.0149     CD =  0.07304   =>   CDf =  0.01464    CDp =  0.05840

 Side 1 forced transition at x/c =  1.0000   85
 Side 2 forced transition at x/c =  1.0000   77

   3   rms: 0.7207E-04   max: -.7962E-03   D at    3  1
       a =  6.950      CL =  0.2001
      Cm = -0.0149     CD =  0.07301   =>   CDf =  0.01464    CDp =  0.05837
 plradd ia,ip,cpol          140          84  9.14681777E-02

 Point added to stored polar  1
 Save file unspecified or not available
 Dump file unspecified or not available

.OPERva   c>  
.OPERva   c>  
.OPERva   c>   Calculating wake trajectory ...
 Calculating source influence matrix ...

 Solving BL system ...

 Side 1 forced transition at x/c =  1.0000   85
 Side 2 forced transition at x/c =  1.0000   77

   1   rms: 0.7816E-02   max: 0.6190E-01   D at    3  1   RLX: 0.443
       a =  7.000      CL =  0.2013
      Cm = -0.0150     CD =  0.07322   =>   CDf =  0.01464    CDp =  0.05858

 Side 1 forced transition at x/c =  1.0000   85
 Side 2 forced transition at x/c =  1.0000   77

   2   rms: 0.4288E-02   max: 0.3302E-01   D at    3  1
       a =  7.000      CL =  0.2029
      Cm = -0.0151     CD =  0.07346   =>   CDf =  0.01464    CDp =  0.05883

 Side 1 forced transition at x/c =  1.0000   85
 Side 2 forced transition at x/c =  1.0000   77

   3   rms: 0.5741E-04   max: 0.5185E-03   D at   92  2
       a =  7.000      CL =  0.2028
      Cm = -0.0151     CD =  0.07343   =>   CDf =  0.01463    CDp =  0.05879
 plradd ia,ip,cpol          141          84  7.98050389E-02

 Point added to stored polar  1
 Save file unspecified or not available
 Dump file unspecified or not available

.OPERva   c>  
.OPERva   c>  
.OPERva   c>   Calculating wake trajectory ...
 Calculating source influence matrix ...

 Solving BL system ...

 Side 1 forced transition at x/c =  1.0000   85
 Side 2 forced transition at x/c =  1.0000   77

   1   rms: 0.7562E-02   max: -.4875E-01   D at    4  2   RLX: 0.442
       a =  7.050      CL =  0.2041
      Cm = -0.0152     CD =  0.07364   =>   CDf =  0.01463    CDp =  0.05900

 Side 1 forced transition at x/c =  1.0000   85
 Side 2 forced transition at x/c =  1.0000   77

   2   rms: 0.4245E-02   max: -.2727E-01   D at    4  2
       a =  7.050      CL =  0.2057
      Cm = -0.0153     CD =  0.07388   =>   CDf =  0.01463    CDp =  0.05925

 Side 1 forced transition at x/c =  1.0000   85
 Side 2 forced transition at x/c =  1.0000   77

   3   rms: 0.5681E-04   max: 0.5189E-03   D at   92  2
       a =  7.050      CL =  0.2057
      Cm = -0.0153     CD =  0.07384   =>   CDf =  0.01462    CDp =  0.05922
 plradd ia,ip,cpol          142          84  7.98050389E-02

 Point added to stored polar  1
 Save file unspecified or not available
 Dump file unspecified or not available

.OPERva   c>  
.OPERva   c>  
.OPERva   c>   Calculating wake trajectory ...
 Calculating source influence matrix ...

 Solving BL system ...

 Side 1 forced transition at x/c =  1.0000   85
 Side 2 forced transition at x/c =  1.0000   77

   1   rms: 0.7299E-02   max: 0.6437E-01   D at    4  1   RLX: 0.440
       a =  7.100      CL =  0.2069
      Cm = -0.0154     CD =  0.07405   =>   CDf =  0.01463    CDp =  0.05943

 Side 1 forced transition at x/c =  1.0000   85
 Side 2 forced transition at x/c =  1.0000   77

   2   rms: 0.4065E-02   max: 0.3528E-01   D at    4  1
       a =  7.100      CL =  0.2086
      Cm = -0.0156     CD =  0.07429   =>   CDf =  0.01462    CDp =  0.05967

 Side 1 forced transition at x/c =  1.0000   85
 Side 2 forced transition at x/c =  1.0000   77

   3   rms: 0.6342E-04   max: -.5278E-03   D at    4  1
       a =  7.100      CL =  0.2085
      Cm = -0.0156     CD =  0.07426   =>   CDf =  0.01462    CDp =  0.05964
 plradd ia,ip,cpol          143          84  7.98050389E-02

 Point added to stored polar  1
 Save file unspecified or not available
 Dump file unspecified or not available

.OPERva   c>  
.OPERva   c>  
.OPERva   c>   Calculating wake trajectory ...
 Calculating source influence matrix ...

 Solving BL system ...

 Side 1 forced transition at x/c =  1.0000   85
 Side 2 forced transition at x/c =  1.0000   77

   1   rms: 0.8826E-02   max: 0.5943E-01   D at    3  2   RLX: 0.439
       a =  7.150      CL =  0.2097
      Cm = -0.0157     CD =  0.07448   =>   CDf =  0.01462    CDp =  0.05986

 Side 1 forced transition at x/c =  1.0000   85
 Side 2 forced transition at x/c =  1.0000   77

   2   rms: 0.4856E-02   max: 0.3263E-01   D at    3  2
       a =  7.150      CL =  0.2113
      Cm = -0.0158     CD =  0.07473   =>   CDf =  0.01461    CDp =  0.06011

 Side 1 forced transition at x/c =  1.0000   85
 Side 2 forced transition at x/c =  1.0000   77

   3   rms: 0.6261E-04   max: 0.5345E-03   D at   92  2
       a =  7.150      CL =  0.2113
      Cm = -0.0158     CD =  0.07469   =>   CDf =  0.01461    CDp =  0.06008
 plradd ia,ip,cpol          144          84  7.98050389E-02

 Point added to stored polar  1
 Save file unspecified or not available
 Dump file unspecified or not available

.OPERva   c>  
.OPERva   c>  
.OPERva   c>   Calculating wake trajectory ...
 Calculating source influence matrix ...

 Solving BL system ...

 Side 1 forced transition at x/c =  1.0000   85
 Side 2 forced transition at x/c =  1.0000   77

   1   rms: 0.7525E-02   max: 0.7119E-01   D at    3  1   RLX: 0.438
       a =  7.200      CL =  0.2125
      Cm = -0.0159     CD =  0.07490   =>   CDf =  0.01461    CDp =  0.06030

 Side 1 forced transition at x/c =  1.0000   85
 Side 2 forced transition at x/c =  1.0000   77

   2   rms: 0.4222E-02   max: 0.4016E-01   D at    3  1
       a =  7.200      CL =  0.2141
      Cm = -0.0160     CD =  0.07515   =>   CDf =  0.01460    CDp =  0.06055

 Side 1 forced transition at x/c =  1.0000   85
 Side 2 forced transition at x/c =  1.0000   77

   3   rms: 0.5935E-04   max: 0.5372E-03   D at   92  2
       a =  7.200      CL =  0.2141
      Cm = -0.0160     CD =  0.07512   =>   CDf =  0.01460    CDp =  0.06052
 plradd ia,ip,cpol          145          84  7.98050389E-02

 Point added to stored polar  1
 Save file unspecified or not available
 Dump file unspecified or not available

.OPERva   c>  
.OPERva   c>  
.OPERva   c>   Calculating wake trajectory ...
 Calculating source influence matrix ...

 Solving BL system ...

 Side 1 forced transition at x/c =  1.0000   85
 Side 2 forced transition at x/c =  1.0000   77

   1   rms: 0.1141E-01   max: -.1445E+00   D at    3  1   RLX: 0.436
       a =  7.250      CL =  0.2153
      Cm = -0.0161     CD =  0.07533   =>   CDf =  0.01460    CDp =  0.06073

 Side 1 forced transition at x/c =  1.0000   85
 Side 2 forced transition at x/c =  1.0000   77

   2   rms: 0.6321E-02   max: -.7881E-01   D at    3  1
       a =  7.250      CL =  0.2170
      Cm = -0.0162     CD =  0.07558   =>   CDf =  0.01460    CDp =  0.06098

 Side 1 forced transition at x/c =  1.0000   85
 Side 2 forced transition at x/c =  1.0000   77

   3   rms: 0.9798E-04   max: 0.8072E-03   D at    6  1
       a =  7.250      CL =  0.2169
      Cm = -0.0162     CD =  0.07554   =>   CDf =  0.01459    CDp =  0.06095
 plradd ia,ip,cpol          146          84  6.91113770E-02

 Point added to stored polar  1
 Save file unspecified or not available
 Dump file unspecified or not available

.OPERva   c>  
.OPERva   c>  
.OPERva   c>   Calculating wake trajectory ...
 Calculating source influence matrix ...

 Solving BL system ...

 Side 1 forced transition at x/c =  1.0000   85
 Side 2 forced transition at x/c =  1.0000   77

   1   rms: 0.1086E-01   max: -.1159E+00   D at    3  2   RLX: 0.435
       a =  7.300      CL =  0.2181
      Cm = -0.0163     CD =  0.07576   =>   CDf =  0.01459    CDp =  0.06117

 Side 1 forced transition at x/c =  1.0000   85
 Side 2 forced transition at x/c =  1.0000   77

   2   rms: 0.6309E-02   max: -.6794E-01   D at    3  2
       a =  7.300      CL =  0.2197
      Cm = -0.0165     CD =  0.07602   =>   CDf =  0.01459    CDp =  0.06143

 Side 1 forced transition at x/c =  1.0000   85
 Side 2 forced transition at x/c =  1.0000   77

   3   rms: 0.1176E-03   max: -.1476E-02   D at    3  2
       a =  7.300      CL =  0.2197
      Cm = -0.0165     CD =  0.07598   =>   CDf =  0.01458    CDp =  0.06140

 Side 1 forced transition at x/c =  1.0000   85
 Side 2 forced transition at x/c =  1.0000   77

   4   rms: 0.2036E-05   max: 0.2319E-04   D at    4  2
       a =  7.300      CL =  0.2197
      Cm = -0.0165     CD =  0.07598   =>   CDf =  0.01458    CDp =  0.06140
 plradd ia,ip,cpol          147          84  7.98050389E-02

 Point added to stored polar  1
 Save file unspecified or not available
 Dump file unspecified or not available

.OPERva   c>  
.OPERva   c>  
.OPERva   c>   Calculating wake trajectory ...
 Calculating source influence matrix ...

 Solving BL system ...

 Side 1 forced transition at x/c =  1.0000   85
 Side 2 forced transition at x/c =  1.0000   77

   1   rms: 0.1018E-01   max: 0.1029E+00   D at    3  2   RLX: 0.434
       a =  7.350      CL =  0.2209
      Cm = -0.0166     CD =  0.07619   =>   CDf =  0.01458    CDp =  0.06161

 Side 1 forced transition at x/c =  1.0000   85
 Side 2 forced transition at x/c =  1.0000   77

   2   rms: 0.5669E-02   max: 0.5862E-01   D at    3  2
       a =  7.350      CL =  0.2225
      Cm = -0.0167     CD =  0.07645   =>   CDf =  0.01458    CDp =  0.06187

 Side 1 forced transition at x/c =  1.0000   85
 Side 2 forced transition at x/c =  1.0000   77

   3   rms: 0.7660E-04   max: -.7037E-03   D at    4  1
       a =  7.350      CL =  0.2224
      Cm = -0.0167     CD =  0.07641   =>   CDf =  0.01457    CDp =  0.06184
 plradd ia,ip,cpol          148          84  6.91113770E-02

 Point added to stored polar  1
 Save file unspecified or not available
 Dump file unspecified or not available

.OPERva   c>  
.OPERva   c>  
.OPERva   c>   Calculating wake trajectory ...
 Calculating source influence matrix ...

 Solving BL system ...

 Side 1 forced transition at x/c =  1.0000   85
 Side 2 forced transition at x/c =  1.0000   77

   1   rms: 0.7343E-02   max: 0.6499E-01   D at    3  1   RLX: 0.433
       a =  7.400      CL =  0.2236
      Cm = -0.0168     CD =  0.07663   =>   CDf =  0.01457    CDp =  0.06206

 Side 1 forced transition at x/c =  1.0000   85
 Side 2 forced transition at x/c =  1.0000   77

   2   rms: 0.4121E-02   max: 0.3600E-01   D at    3  1
       a =  7.400      CL =  0.2252
      Cm = -0.0169     CD =  0.07689   =>   CDf =  0.01457    CDp =  0.06232

 Side 1 forced transition at x/c =  1.0000   85
 Side 2 forced transition at x/c =  1.0000   77

   3   rms: 0.6123E-04   max: 0.5384E-03   D at   92  2
       a =  7.400      CL =  0.2252
      Cm = -0.0169     CD =  0.07685   =>   CDf =  0.01456    CDp =  0.06229
 plradd ia,ip,cpol          149          84  6.91113770E-02

 Point added to stored polar  1
 Save file unspecified or not available
 Dump file unspecified or not available

.OPERva   c>  
.OPERva   c>  
.OPERva   c>   Calculating wake trajectory ...
 Calculating source influence matrix ...

 Solving BL system ...

 Side 1 forced transition at x/c =  1.0000   85
 Side 2 forced transition at x/c =  1.0000   77

   1   rms: 0.6108E-02   max: 0.9665E-02   D at   96  2   RLX: 0.432
       a =  7.450      CL =  0.2264
      Cm = -0.0170     CD =  0.07707   =>   CDf =  0.01456    CDp =  0.06251

 Side 1 forced transition at x/c =  1.0000   85
 Side 2 forced transition at x/c =  1.0000   77

   2   rms: 0.3464E-02   max: 0.5762E-02   D at   96  2
       a =  7.450      CL =  0.2280
      Cm = -0.0171     CD =  0.07733   =>   CDf =  0.01456    CDp =  0.06277

 Side 1 forced transition at x/c =  1.0000   85
 Side 2 forced transition at x/c =  1.0000   77

   3   rms: 0.5892E-04   max: 0.5705E-03   D at   92  2
       a =  7.450      CL =  0.2280
      Cm = -0.0171     CD =  0.07729   =>   CDf =  0.01455    CDp =  0.06274
 plradd ia,ip,cpol          150          84  6.91113770E-02

 Point added to stored polar  1
 Save file unspecified or not available
 Dump file unspecified or not available

.OPERva   c>  
.OPERva   c>  
.OPERva   c>   Calculating wake trajectory ...
 Calculating source influence matrix ...

 Solving BL system ...

 Side 1 forced transition at x/c =  1.0000   85
 Side 2 forced transition at x/c =  1.0000   77

   1   rms: 0.7795E-02   max: -.5348E-01   D at    5  2   RLX: 0.430
       a =  7.500      CL =  0.2291
      Cm = -0.0172     CD =  0.07751   =>   CDf =  0.01455    CDp =  0.06296

 Side 1 forced transition at x/c =  1.0000   85
 Side 2 forced transition at x/c =  1.0000   77

   2   rms: 0.4514E-02   max: -.3114E-01   D at    5  2
       a =  7.500      CL =  0.2307
      Cm = -0.0174     CD =  0.07777   =>   CDf =  0.01455    CDp =  0.06322

 Side 1 forced transition at x/c =  1.0000   85
 Side 2 forced transition at x/c =  1.0000   77

   3   rms: 0.1002E-03   max: 0.9352E-03   D at    4  2
       a =  7.500      CL =  0.2307
      Cm = -0.0174     CD =  0.07773   =>   CDf =  0.01454    CDp =  0.06319

 Side 1 forced transition at x/c =  1.0000   85
 Side 2 forced transition at x/c =  1.0000   77

   4   rms: 0.6445E-05   max: -.8819E-04   D at    4  2
       a =  7.500      CL =  0.2307
      Cm = -0.0174     CD =  0.07773   =>   CDf =  0.01454    CDp =  0.06319
 plradd ia,ip,cpol          151          84  6.91113770E-02

 Point added to stored polar  1
 Save file unspecified or not available
 Dump file unspecified or not available

.OPERva   c>  
.OPERva   c>  
.OPERva   c>   Calculating wake trajectory ...
 Calculating source influence matrix ...

 Solving BL system ...

 Side 1 forced transition at x/c =  1.0000   85
 Side 2 forced transition at x/c =  1.0000   77

   1   rms: 0.7638E-02   max: -.5358E-01   D at    4  2   RLX: 0.429
       a =  7.550      CL =  0.2318
      Cm = -0.0175     CD =  0.07796   =>   CDf =  0.01454    CDp =  0.06342

 Side 1 forced transition at x/c =  1.0000   85
 Side 2 forced transition at x/c =  1.0000   77

   2   rms: 0.4364E-02   max: -.3140E-01   D at    4  2
       a =  7.550      CL =  0.2334
      Cm = -0.0176     CD =  0.07822   =>   CDf =  0.01453    CDp =  0.06369

