
 ===================================================
  XFOIL Version 6.99
  Copyright (C) 2000   Mark Drela, Harold Youngren

  This software comes with ABSOLUTELY NO WARRANTY,
    subject to the GNU General Public License.

  Caveat computor
 ===================================================

 File  xfoil.def  not found

   QUIT    Exit program

  .OPER    Direct operating point(s)
  .MDES    Complex mapping design routine
  .QDES    Surface speed design routine
  .GDES    Geometry design routine

   SAVE f  Write airfoil to labeled coordinate file
   PSAV f  Write airfoil to plain coordinate file
   ISAV f  Write airfoil to ISES coordinate file
   MSAV f  Write airfoil to MSES coordinate file
   REVE    Reverse written-airfoil node ordering

   LOAD f  Read buffer airfoil from coordinate file
   NACA i  Set NACA 4,5-digit airfoil and buffer airfoil
   INTE    Set buffer airfoil by interpolating two airfoils
   NORM    Buffer airfoil normalization toggle
   XYCM rr Change CM reference location, currently  0.25000 0.00000

   BEND    Display structural properties of current airfoil

   PCOP    Set current-airfoil panel nodes directly from buffer airfoil points
   PANE    Set current-airfoil panel nodes ( 160 ) based on curvature
  .PPAR    Show/change paneling

  .PLOP    Plotting options

   WDEF f  Write  current-settings file
   RDEF f  Reread current-settings file
   NAME s  Specify new airfoil name
   NINC    Increment name version number

   Z       Zoom    | (available in all menus)
   U       Unzoom  | 

 XFOIL   c>  
 Labeled airfoil file.  Name:  SG6040                                          

 Number of input coordinate points:  81
 Counterclockwise ordering
 Max thickness =     0.160016  at x =   0.353
 Max camber    =     0.025156  at x =   0.582

  LE  x,y  =   0.00009  -0.00040  |   Chord =   0.99991
  TE  x,y  =   1.00000   0.00000  |

 Current airfoil nodes set from buffer airfoil nodes (  81 )

 XFOIL   c>  
  F  disk file
  C  current airfoil  SG6040                                          

  Select source of airfoil "0" ( F C ):  
Enter filename   s>  
  Select source of airfoil "1" ( F C ):  
Enter filename   s>  
 airfoil "0":  SG6040                                          
 airfoil "1":  WORTMANN FX 63-137 AIRFOIL                      

Specify interpolating fraction  0...1   r>   Max thickness =     0.154151  at x =   0.352
 Max camber    =     0.032900  at x =   0.568

Enter new airfoil name   s>  
 Result has been placed in buffer airfoil
 Execute PCOP or PANE to set new current airfoil

 XFOIL   c>  
 Sharp trailing edge

 Paneling parameters used...
   Number of panel nodes       160
   Panel bunching parameter    1.000
   TE/LE panel density ratio   0.150
   Refined-area/LE panel density ratio    0.200
   Top    side refined area x/c limits  1.000 1.000
   Bottom side refined area x/c limits  1.000 1.000

 XFOIL   c>  
 XFOIL   c>  
 XFOIL   c>  
.OPERi   c>  
.OPERi   c>  
 Sonic Cp =   -550.04      Sonic Q/Qinf =    26.096


.OPERi   c>  
 M  =    0.0350
 Re =    120000

.OPERv   c>  
 Polar  1 newly created for accumulation
 Airfoil archived with polar: BlendedAirfoil                                  

Enter  polar save filename  OR  <return> for no file   s>  
 Polar save file will NOT be written

Enter  polar dump filename  OR  <return> for no file   s>  
 Polar dump file will NOT be written

 Polar accumulation enabled

.OPERva   c>   Calculating unit vorticity distributions ...
 Calculating wake trajectory ...
 Calculating source influence matrix ...

 Solving BL system ...

 Initializing BL ...
    side            1  ...
 MRCHUE: Inverse mode at  53     Hk =   4.077
 MRCHUE: Inverse mode at  54     Hk =   4.441
 MRCHUE: Inverse mode at  55     Hk =   4.794
 MRCHUE: Inverse mode at  56     Hk =   5.141
 MRCHUE: Inverse mode at  57     Hk =   5.483
 MRCHUE: Inverse mode at  58     Hk =   5.821
 MRCHUE: Inverse mode at  59     Hk =   6.154
 MRCHUE: Inverse mode at  60     Hk =   6.482
 MRCHUE: Inverse mode at  61     Hk =   6.807
 MRCHUE: Inverse mode at  62     Hk =   7.129
 MRCHUE: Inverse mode at  63     Hk =   7.449
 MRCHUE: Inverse mode at  64     Hk =   7.766
 MRCHUE: Inverse mode at  65     Hk =   8.080
 MRCHUE: Inverse mode at  66     Hk =   8.393
 MRCHUE: Inverse mode at  67     Hk =   8.705
 MRCHUE: Inverse mode at  68     Hk =   9.016
 MRCHUE: Inverse mode at  69     Hk =   9.326
 MRCHUE: Inverse mode at  70     Hk =   8.924
 MRCHUE: Inverse mode at  71     Hk =   7.591
 MRCHUE: Inverse mode at  72     Hk =   6.617
 MRCHUE: Inverse mode at  73     Hk =   5.843
 MRCHUE: Inverse mode at  74     Hk =   5.200
 MRCHUE: Inverse mode at  75     Hk =   4.653
 MRCHUE: Inverse mode at  76     Hk =   4.181
 MRCHUE: Inverse mode at  77     Hk =   3.773
 MRCHUE: Inverse mode at  78     Hk =   3.420
 MRCHUE: Inverse mode at  79     Hk =   3.113
 MRCHUE: Inverse mode at  80     Hk =   2.841
 MRCHUE: Inverse mode at  81     Hk =   2.604
 MRCHUE: Inverse mode at  82     Hk =   2.500
 MRCHUE: Convergence failed at  83  side 1    Res =  0.4728E+01
    side            2  ...
 MRCHUE: Inverse mode at  48     Hk =   3.800
 MRCHUE: Inverse mode at  49     Hk =   4.135
 MRCHUE: Inverse mode at  50     Hk =   4.465
 MRCHUE: Inverse mode at  51     Hk =   4.791
 MRCHUE: Inverse mode at  52     Hk =   5.112
 MRCHUE: Inverse mode at  53     Hk =   5.429
 MRCHUE: Inverse mode at  54     Hk =   5.742
 MRCHUE: Convergence failed at  55  side 2    Res =  0.1852E+01
 MRCHUE: Inverse mode at  56     Hk =   6.045
 MRCHUE: Inverse mode at  57     Hk =   6.343
 MRCHUE: Inverse mode at  58     Hk =   6.635
 MRCHUE: Inverse mode at  59     Hk =   6.921
 MRCHUE: Inverse mode at  60     Hk =   7.203
 MRCHUE: Inverse mode at  61     Hk =   7.481
 MRCHUE: Inverse mode at  62     Hk =   7.754
 MRCHUE: Inverse mode at  63     Hk =   8.023
 MRCHUE: Inverse mode at  64     Hk =   8.288
 MRCHUE: Inverse mode at  65     Hk =   8.550
 MRCHUE: Inverse mode at  66     Hk =   8.807
 MRCHUE: Inverse mode at  67     Hk =   9.060
 MRCHUE: Inverse mode at  68     Hk =   9.310
 MRCHUE: Inverse mode at  69     Hk =   9.556
 MRCHUE: Inverse mode at  70     Hk =   9.047
 MRCHUE: Inverse mode at  71     Hk =   8.024
 MRCHUE: Inverse mode at  72     Hk =   7.243
 MRCHUE: Inverse mode at  73     Hk =   6.614
 MRCHUE: Inverse mode at  74     Hk =   6.091
 MRCHUE: Inverse mode at  75     Hk =   5.651
 MRCHUE: Inverse mode at  76     Hk =   5.282
 MRCHUE: Inverse mode at  77     Hk =   4.971
 MRCHUE: Inverse mode at  78     Hk =   4.711
 MRCHUE: Inverse mode at  79     Hk =   4.563

 MRCHDU: Convergence failed at  83  side 1    Res =  0.3897E+01
 Side 1  free  transition at x/c =  0.8073   70
 Side 2  free  transition at x/c =  0.8754   70
 idif Ue xi dudx           1  0.30170587      3.72099876E-03   81.081955    
 Uenew xinew           2  0.15195481      1.87408924E-03

   1   rms: 0.5793E+00   max: -.1649E+01   D at   79  2   RLX: 0.303
       a =  0.000      CL =  0.3843
      Cm = -0.0917     CD =  0.01567   =>   CDf =  0.00713    CDp =  0.00854

 Side 1  free  transition at x/c =  0.7854   68
 Side 2  free  transition at x/c =  0.8610   70
 idif Ue xi dudx           1  0.24044578      3.30543518E-03   72.742546    
 Uenew xinew           2  0.10200388      1.40225887E-03

   2   rms: 0.2501E+00   max: -.1226E+01   D at   80  2   RLX: 0.408
       a =  0.000      CL =  0.2909
      Cm = -0.0757     CD =  0.01788   =>   CDf =  0.00690    CDp =  0.01098

 Side 1  free  transition at x/c =  0.7777   66
 Side 2  free  transition at x/c =  0.8312   69
 idif Ue xi dudx           1  0.14140508      2.11369991E-03   66.899315    
 Uenew xinew           2  8.23022053E-03  1.23023987E-04

   3   rms: 0.1273E+00   max: 0.1011E+01   T at   69  2   RLX: 0.886
       a =  0.000      CL =  0.2438
      Cm = -0.0687     CD =  0.02251   =>   CDf =  0.00682    CDp =  0.01569

 Side 1  free  transition at x/c =  0.7644   65
 Side 2  free  transition at x/c =  0.7894   68

   4   rms: 0.9128E-01   max: -.4043E+00   D at   69  2
       a =  0.000      CL =  0.3058
      Cm = -0.0800     CD =  0.02348   =>   CDf =  0.00666    CDp =  0.01681

 Side 1  free  transition at x/c =  0.7721   66
 Side 2  free  transition at x/c =  0.7857   67

   5   rms: 0.7845E-01   max: -.3513E+00   T at   66  1
       a =  0.000      CL =  0.3676
      Cm = -0.0898     CD =  0.02166   =>   CDf =  0.00684    CDp =  0.01482

 Side 1  free  transition at x/c =  0.7887   67
 Side 2  free  transition at x/c =  0.7866   67

   6   rms: 0.3956E-01   max: 0.2181E+00   D at   70  1
       a =  0.000      CL =  0.3497
      Cm = -0.0872     CD =  0.02225   =>   CDf =  0.00695    CDp =  0.01530

 Side 1  free  transition at x/c =  0.7819   67
 Side 2  free  transition at x/c =  0.7863   67

   7   rms: 0.4403E-02   max: -.2979E-01   D at   67  1
       a =  0.000      CL =  0.3511
      Cm = -0.0874     CD =  0.02218   =>   CDf =  0.00692    CDp =  0.01526

 Side 1  free  transition at x/c =  0.7825   67
 Side 2  free  transition at x/c =  0.7864   67

   8   rms: 0.5768E-04   max: 0.2383E-03   T at   67  2
       a =  0.000      CL =  0.3511
      Cm = -0.0874     CD =  0.02218   =>   CDf =  0.00692    CDp =  0.01526
 plradd ia,ip,cpol            1          80  0.26027939    

 Point added to stored polar  1
 Save file unspecified or not available
 Dump file unspecified or not available

.OPERva   c>  
.OPERva   c>  
.OPERva   c>   Calculating wake trajectory ...
 Calculating source influence matrix ...

 Solving BL system ...

 Side 1  free  transition at x/c =  0.7825   67
 Side 2  free  transition at x/c =  0.7864   67

   1   rms: 0.1032E-01   max: -.3709E-01   T at   67  2
       a =  0.050      CL =  0.3582
      Cm = -0.0875     CD =  0.02209   =>   CDf =  0.00692    CDp =  0.01517

 Side 1  free  transition at x/c =  0.7818   67
 Side 2  free  transition at x/c =  0.7876   67

   2   rms: 0.3694E-03   max: -.2095E-02   D at   69  2
       a =  0.050      CL =  0.3584
      Cm = -0.0875     CD =  0.02210   =>   CDf =  0.00693    CDp =  0.01517

 Side 1  free  transition at x/c =  0.7818   67
 Side 2  free  transition at x/c =  0.7876   67

   3   rms: 0.4370E-05   max: 0.1568E-04   T at   67  2
       a =  0.050      CL =  0.3584
      Cm = -0.0875     CD =  0.02210   =>   CDf =  0.00693    CDp =  0.01517
 plradd ia,ip,cpol            2          80  0.26027939    

 Point added to stored polar  1
 Save file unspecified or not available
 Dump file unspecified or not available

.OPERva   c>  
.OPERva   c>  
.OPERva   c>   Calculating wake trajectory ...
 Calculating source influence matrix ...

 Solving BL system ...

 Side 1  free  transition at x/c =  0.7818   67
 Side 2  free  transition at x/c =  0.7876   67

   1   rms: 0.1011E-01   max: -.3732E-01   T at   67  2
       a =  0.100      CL =  0.3657
      Cm = -0.0876     CD =  0.02201   =>   CDf =  0.00693    CDp =  0.01508

 Side 1  free  transition at x/c =  0.7812   67
 Side 2  free  transition at x/c =  0.7890   67

   2   rms: 0.4489E-03   max: -.2970E-02   D at   69  2
       a =  0.100      CL =  0.3659
      Cm = -0.0876     CD =  0.02202   =>   CDf =  0.00693    CDp =  0.01508

 Side 1  free  transition at x/c =  0.7812   67
 Side 2  free  transition at x/c =  0.7890   67

   3   rms: 0.3500E-05   max: 0.3053E-04   T at   67  2
       a =  0.100      CL =  0.3659
      Cm = -0.0876     CD =  0.02202   =>   CDf =  0.00694    CDp =  0.01508
 plradd ia,ip,cpol            3          80  0.26027939    

 Point added to stored polar  1
 Save file unspecified or not available
 Dump file unspecified or not available

.OPERva   c>  
.OPERva   c>  
.OPERva   c>   Calculating wake trajectory ...
 Calculating source influence matrix ...

 Solving BL system ...

 Side 1  free  transition at x/c =  0.7812   67
 Side 2  free  transition at x/c =  0.7890   67

   1   rms: 0.1021E-01   max: -.3463E-01   T at   67  2
       a =  0.150      CL =  0.3737
      Cm = -0.0879     CD =  0.02192   =>   CDf =  0.00694    CDp =  0.01499

 Side 1  free  transition at x/c =  0.7806   67
 Side 2  free  transition at x/c =  0.7903   67

   2   rms: 0.5127E-03   max: -.3620E-02   D at   69  2
       a =  0.150      CL =  0.3738
      Cm = -0.0879     CD =  0.02193   =>   CDf =  0.00695    CDp =  0.01499

 Side 1  free  transition at x/c =  0.7806   67
 Side 2  free  transition at x/c =  0.7904   67

   3   rms: 0.1073E-04   max: 0.1326E-03   D at    4  2
       a =  0.150      CL =  0.3738
      Cm = -0.0879     CD =  0.02193   =>   CDf =  0.00695    CDp =  0.01499
 plradd ia,ip,cpol            4          80  0.26027939    

 Point added to stored polar  1
 Save file unspecified or not available
 Dump file unspecified or not available

.OPERva   c>  
.OPERva   c>  
.OPERva   c>   Calculating wake trajectory ...
 Calculating source influence matrix ...

 Solving BL system ...

 Side 1  free  transition at x/c =  0.7806   67
 Side 2  free  transition at x/c =  0.7904   67

   1   rms: 0.1012E-01   max: -.3671E-01   T at   67  2
       a =  0.200      CL =  0.3817
      Cm = -0.0881     CD =  0.02184   =>   CDf =  0.00690    CDp =  0.01494

 Side 1  free  transition at x/c =  0.7800   68
 Side 2  free  transition at x/c =  0.7919   66

   2   rms: 0.2130E-02   max: -.2925E-01   T at    2  1
       a =  0.200      CL =  0.3819
      Cm = -0.0882     CD =  0.02185   =>   CDf =  0.00696    CDp =  0.01489

 Side 1  free  transition at x/c =  0.7800   68
 Side 2  free  transition at x/c =  0.7920   66

   3   rms: 0.8756E-03   max: 0.1143E-01   D at    4  1
       a =  0.200      CL =  0.3819
      Cm = -0.0882     CD =  0.02185   =>   CDf =  0.00696    CDp =  0.01489

 Side 1  free  transition at x/c =  0.7800   68
 Side 2  free  transition at x/c =  0.7920   66

   4   rms: 0.7751E-06   max: 0.6739E-05   T at   66  2
       a =  0.200      CL =  0.3819
      Cm = -0.0882     CD =  0.02185   =>   CDf =  0.00696    CDp =  0.01489
 plradd ia,ip,cpol            5          81  0.26027939    

 Point added to stored polar  1
 Save file unspecified or not available
 Dump file unspecified or not available

.OPERva   c>  
.OPERva   c>  
.OPERva   c>   Calculating wake trajectory ...
 Calculating source influence matrix ...

 Solving BL system ...

 Side 1  free  transition at x/c =  0.7800   68
 Side 2  free  transition at x/c =  0.7920   66

   1   rms: 0.1045E-01   max: -.3376E-01   T at   66  2
       a =  0.250      CL =  0.3901
      Cm = -0.0885     CD =  0.02176   =>   CDf =  0.00696    CDp =  0.01480

 Side 1  free  transition at x/c =  0.7795   67
 Side 2  free  transition at x/c =  0.7935   66

   2   rms: 0.1487E-01   max: -.8026E-01   T at   67  1
       a =  0.250      CL =  0.4020
      Cm = -0.0904     CD =  0.02146   =>   CDf =  0.00697    CDp =  0.01448

 Side 1  free  transition at x/c =  0.7832   68
 Side 2  free  transition at x/c =  0.7935   66

   3   rms: 0.2634E-01   max: 0.1608E+00   D at   70  1
       a =  0.250      CL =  0.3905
      Cm = -0.0887     CD =  0.02176   =>   CDf =  0.00698    CDp =  0.01478

 Side 1  free  transition at x/c =  0.7794   67
 Side 2  free  transition at x/c =  0.7935   66

   4   rms: 0.1584E-01   max: -.8175E-01   T at   67  1
       a =  0.250      CL =  0.4020
      Cm = -0.0904     CD =  0.02146   =>   CDf =  0.00697    CDp =  0.01449

 Side 1  free  transition at x/c =  0.7831   68
 Side 2  free  transition at x/c =  0.7935   66

   5   rms: 0.2616E-01   max: 0.1593E+00   D at   70  1
       a =  0.250      CL =  0.3905
      Cm = -0.0887     CD =  0.02176   =>   CDf =  0.00698    CDp =  0.01478

 Side 1  free  transition at x/c =  0.7794   67
 Side 2  free  transition at x/c =  0.7935   66

   6   rms: 0.1584E-01   max: -.8177E-01   T at   67  1
       a =  0.250      CL =  0.4020
      Cm = -0.0904     CD =  0.02146   =>   CDf =  0.00697    CDp =  0.01449

 Side 1  free  transition at x/c =  0.7831   68
 Side 2  free  transition at x/c =  0.7935   66

   7   rms: 0.2617E-01   max: 0.1593E+00   D at   70  1
       a =  0.250      CL =  0.3905
      Cm = -0.0887     CD =  0.02176   =>   CDf =  0.00698    CDp =  0.01478

 Side 1  free  transition at x/c =  0.7794   67
 Side 2  free  transition at x/c =  0.7935   66

   8   rms: 0.1584E-01   max: -.8176E-01   T at   67  1
       a =  0.250      CL =  0.4020
      Cm = -0.0904     CD =  0.02146   =>   CDf =  0.00697    CDp =  0.01449

 Side 1  free  transition at x/c =  0.7831   68
 Side 2  free  transition at x/c =  0.7935   66

   9   rms: 0.2617E-01   max: 0.1593E+00   D at   70  1
       a =  0.250      CL =  0.3905
      Cm = -0.0887     CD =  0.02176   =>   CDf =  0.00698    CDp =  0.01478

 Side 1  free  transition at x/c =  0.7794   67
 Side 2  free  transition at x/c =  0.7935   66

  10   rms: 0.1584E-01   max: -.8176E-01   T at   67  1
       a =  0.250      CL =  0.4020
      Cm = -0.0904     CD =  0.02146   =>   CDf =  0.00697    CDp =  0.01449
 VISCAL:  Convergence failed

.OPERva   c>  
.OPERva   c>  
.OPERva   c>   Calculating wake trajectory ...
 Calculating source influence matrix ...

 Solving BL system ...

 Side 1  free  transition at x/c =  0.7831   68
 Side 2  free  transition at x/c =  0.7935   66

   1   rms: 0.2402E-01   max: 0.1431E+00   D at   70  1
       a =  0.300      CL =  0.3991
      Cm = -0.0891     CD =  0.02166   =>   CDf =  0.00698    CDp =  0.01469

 Side 1  free  transition at x/c =  0.7789   67
 Side 2  free  transition at x/c =  0.7951   66

   2   rms: 0.5897E-01   max: -.3030E+00   T at   67  1
       a =  0.300      CL =  0.4452
      Cm = -0.0961     CD =  0.02051   =>   CDf =  0.00698    CDp =  0.01353

 MRCHDU: Convergence failed at  82  side 1    Res =  0.2701E+01
 Side 1  free  transition at x/c =  0.7947   68
 Side 2  free  transition at x/c =  0.7950   66

   3   rms: 0.8221E-01   max: 0.5591E+00   D at   69  1
       a =  0.300      CL =  0.4246
      Cm = -0.0932     CD =  0.02045   =>   CDf =  0.00700    CDp =  0.01345

 Side 1  free  transition at x/c =  0.7851   68
 Side 2  free  transition at x/c =  0.7951   66

   4   rms: 0.4231E-01   max: 0.2182E+00   T at   68  1
       a =  0.300      CL =  0.3926
      Cm = -0.0882     CD =  0.02177   =>   CDf =  0.00696    CDp =  0.01480

 Side 1  free  transition at x/c =  0.7771   67
 Side 2  free  transition at x/c =  0.7953   66

   5   rms: 0.2360E+00   max: -.1226E+01   T at   67  1   RLX: 0.408
       a =  0.300      CL =  0.4699
      Cm = -0.1000     CD =  0.01987   =>   CDf =  0.00696    CDp =  0.01291

 MRCHDU: Convergence failed at  70  side 1    Res =  0.1480E+01
 MRCHDU: Convergence failed at  71  side 1    Res =  0.3974E+01
 MRCHDU: Convergence failed at  72  side 1    Res =  0.7714E+01
 MRCHDU: Convergence failed at  73  side 1    Res =  0.3479E+01
 MRCHDU: Convergence failed at  74  side 1    Res =  0.3442E+01
 MRCHDU: Convergence failed at  75  side 1    Res =  0.3696E+01
 MRCHDU: Convergence failed at  76  side 1    Res =  0.5183E+01
 MRCHDU: Convergence failed at  77  side 1    Res =  0.6463E+01
 MRCHDU: Convergence failed at  78  side 1    Res =  0.6756E+01
 MRCHDU: Convergence failed at  79  side 1    Res =  0.5931E+01
 MRCHDU: Convergence failed at  80  side 1    Res =  0.1455E+02
 MRCHDU: Convergence failed at  81  side 1    Res =  0.3261E+02
 MRCHDU: Convergence failed at  82  side 1    Res =  0.1976E+03
 Side 1  free  transition at x/c =  0.8047   69
 Side 2  free  transition at x/c =  0.7949   66
 idif Ue xi dudx           1  0.16479684      2.04610825E-03   80.541603    
 Uenew xinew           2  1.15119675E-02  1.42931938E-04

   6   rms: 0.3984E+00   max: 0.2645E+01   D at   82  1   RLX: 0.567
       a =  0.300      CL =  0.3747
      Cm = -0.1006     CD =  0.01234   =>   CDf =  0.00697    CDp =  0.00536

 MRCHDU: Convergence failed at  69  side 1    Res =  0.1513E+01
 MRCHDU: Convergence failed at  70  side 1    Res =  0.6515E+01
 MRCHDU: Convergence failed at  71  side 1    Res =  0.2688E+02
 Side 1  free  transition at x/c =  0.7854   67
 Side 2  free  transition at x/c =  0.7967   67

   7   rms: 0.3509E+01   max: -.4091E+02   T at    2  2   RLX: 0.012
       a =  0.300      CL =  0.4016
      Cm = -0.1033     CD =  0.01832   =>   CDf =  0.00682    CDp =  0.01150

 Side 1  free  transition at x/c =  0.7938   68
 Side 2  free  transition at x/c =  0.7968   66

   8   rms: 0.1854E+00   max: -.1624E+01   D at    2  1   RLX: 0.308
       a =  0.300      CL =  0.4282
      Cm = -0.1024     CD =  0.01716   =>   CDf =  0.00757    CDp =  0.00959

 Side 1  free  transition at x/c =  0.7944   68
 Side 2  free  transition at x/c =  0.7961   66

   9   rms: 0.1206E+00   max: 0.8115E+00   D at   72  1
       a =  0.300      CL =  0.4503
      Cm = -0.0986     CD =  0.02027   =>   CDf =  0.00737    CDp =  0.01290

 MRCHDU: Convergence failed at  82  side 1    Res =  0.1003E+01
 Side 1  free  transition at x/c =  0.7848   68
 Side 2  free  transition at x/c =  0.7944   66

  10   rms: 0.6055E-01   max: 0.1878E+00   D at   87  2
       a =  0.300      CL =  0.3942
      Cm = -0.0884     CD =  0.02152   =>   CDf =  0.00696    CDp =  0.01457
 VISCAL:  Convergence failed

.OPERva   c>  
.OPERva   c>  
.OPERva   c>   Calculating wake trajectory ...
 Calculating source influence matrix ...

 Solving BL system ...

 Side 1  free  transition at x/c =  0.7779   67
 Side 2  free  transition at x/c =  0.7955   66

   1   rms: 0.1503E+00   max: -.7172E+00   T at   67  1   RLX: 0.697
       a =  0.350      CL =  0.4796
      Cm = -0.1008     CD =  0.01970   =>   CDf =  0.00697    CDp =  0.01273

 MRCHDU: Convergence failed at  70  side 1    Res =  0.1535E+01
 MRCHDU: Convergence failed at  71  side 1    Res =  0.6035E+01
 MRCHDU: Convergence failed at  72  side 1    Res =  0.5830E+01
 MRCHDU: Convergence failed at  73  side 1    Res =  0.3437E+01
 MRCHDU: Convergence failed at  74  side 1    Res =  0.3123E+01
 MRCHDU: Convergence failed at  75  side 1    Res =  0.4824E+01
 MRCHDU: Convergence failed at  76  side 1    Res =  0.7301E+01
 MRCHDU: Convergence failed at  77  side 1    Res =  0.9882E+01
 MRCHDU: Convergence failed at  78  side 1    Res =  0.9932E+01
 MRCHDU: Convergence failed at  79  side 1    Res =  0.7989E+01
 MRCHDU: Convergence failed at  80  side 1    Res =  0.1176E+02
 MRCHDU: Convergence failed at  81  side 1    Res =  0.2292E+02
 MRCHDU: Convergence failed at  82  side 1    Res =  0.1060E+03
 Side 1  free  transition at x/c =  0.8061   69
 Side 2  free  transition at x/c =  0.7961   66
 idif Ue xi dudx           1  0.14351395      1.95884705E-03   73.264496    
 Uenew xinew           2  4.07868857E-03  5.56707382E-05

   2   rms: 0.3897E+00   max: 0.2552E+01   D at   82  1   RLX: 0.588
       a =  0.350      CL =  0.3839
      Cm = -0.1004     CD =  0.01220   =>   CDf =  0.00698    CDp =  0.00521

 MRCHDU: Convergence failed at  69  side 1    Res =  0.1469E+01
 MRCHDU: Convergence failed at  70  side 1    Res =  0.3258E+01
 MRCHDU: Convergence failed at  71  side 1    Res =  0.3631E+01
 MRCHDU: Convergence failed at  72  side 1    Res =  0.4576E+01
 Side 1  free  transition at x/c =  0.7878   67
 Side 2  free  transition at x/c =  0.7982   67

   3   rms: 0.7777E+01   max: -.1061E+03   D at    2  2   RLX: 0.005
       a =  0.350      CL =  0.4127
      Cm = -0.1082     CD =  0.01748   =>   CDf =  0.00683    CDp =  0.01065

 Side 1  free  transition at x/c =  0.7938   68
 Side 2  free  transition at x/c =  0.7982   66

   4   rms: 0.1809E+00   max: -.1027E+01   D at    2  1   RLX: 0.487
       a =  0.350      CL =  0.4591
      Cm = -0.1068     CD =  0.01705   =>   CDf =  0.00768    CDp =  0.00937

 Side 1  free  transition at x/c =  0.7953   68
 Side 2  free  transition at x/c =  0.7973   66

   5   rms: 0.1389E+00   max: 0.8309E+00   D at   80  1
       a =  0.350      CL =  0.4120
      Cm = -0.0906     CD =  0.02085   =>   CDf =  0.00732    CDp =  0.01353

 Side 1  free  transition at x/c =  0.7761   67
 Side 2  free  transition at x/c =  0.7963   66

   6   rms: 0.3296E+00   max: -.1760E+01   T at   67  1   RLX: 0.284
       a =  0.350      CL =  0.4881
      Cm = -0.1031     CD =  0.02000   =>   CDf =  0.00692    CDp =  0.01308

 MRCHDU: Convergence failed at  80  side 1    Res =  0.1289E+01
 MRCHDU: Convergence failed at  81  side 1    Res =  0.2064E+01
 MRCHDU: Convergence failed at  82  side 1    Res =  0.2412E+01
 Side 1  free  transition at x/c =  0.8033   69
 Side 2  free  transition at x/c =  0.7956   66

   7   rms: 0.9512E-01   max: 0.4367E+00   D at   69  1
       a =  0.350      CL =  0.4478
      Cm = -0.0952     CD =  0.01923   =>   CDf =  0.00701    CDp =  0.01222

 Side 1  free  transition at x/c =  0.7921   68
 Side 2  free  transition at x/c =  0.7968   66
 idif Ue xi dudx           1  0.24954458      3.58402729E-03   69.626862    
 Uenew xinew           2  0.11703238      1.68085098E-03

   8   rms: 0.5814E+00   max: 0.2901E+01   T at   68  1   RLX: 0.420
       a =  0.350      CL =  0.2493
      Cm = -0.0677     CD =  0.02412   =>   CDf =  0.00706    CDp =  0.01706

 Side 1  free  transition at x/c =  0.7507   65
 Side 2  free  transition at x/c =  0.7994   67

   9   rms: 0.1602E+00   max: -.6071E+00   T at   65  1   RLX: 0.824
       a =  0.350      CL =  0.3519
      Cm = -0.0801     CD =  0.02254   =>   CDf =  0.00679    CDp =  0.01575

 Side 1  free  transition at x/c =  0.7725   66
 Side 2  free  transition at x/c =  0.7997   67

  10   rms: 0.3668E-01   max: 0.2541E+00   D at   81  1
       a =  0.350      CL =  0.3883
      Cm = -0.0870     CD =  0.02223   =>   CDf =  0.00693    CDp =  0.01530
 VISCAL:  Convergence failed

.OPERva   c>  
.OPERva   c>  
.OPERva   c>   Calculating wake trajectory ...
 Calculating source influence matrix ...

 Solving BL system ...

 Side 1  free  transition at x/c =  0.7715   67
 Side 2  free  transition at x/c =  0.7969   66

   1   rms: 0.1024E-01   max: -.5222E-01   D at    5  1
       a =  0.400      CL =  0.3867
      Cm = -0.0857     CD =  0.02222   =>   CDf =  0.00694    CDp =  0.01528

 Side 1  free  transition at x/c =  0.7695   67
 Side 2  free  transition at x/c =  0.7988   66

   2   rms: 0.1477E-02   max: 0.7580E-02   D at    4  1
       a =  0.400      CL =  0.3876
      Cm = -0.0858     CD =  0.02219   =>   CDf =  0.00695    CDp =  0.01525

 Side 1  free  transition at x/c =  0.7697   67
 Side 2  free  transition at x/c =  0.7989   66

   3   rms: 0.2489E-04   max: 0.1190E-03   D at   69  2
       a =  0.400      CL =  0.3876
      Cm = -0.0858     CD =  0.02219   =>   CDf =  0.00695    CDp =  0.01524
 plradd ia,ip,cpol            6          81  0.26027939    

 Point added to stored polar  1
 Save file unspecified or not available
 Dump file unspecified or not available

.OPERva   c>  
.OPERva   c>  
.OPERva   c>   Calculating wake trajectory ...
 Calculating source influence matrix ...

 Solving BL system ...

 Side 1  free  transition at x/c =  0.7697   67
 Side 2  free  transition at x/c =  0.7989   66

   1   rms: 0.1074E-01   max: -.4273E-01   T at   66  2
       a =  0.450      CL =  0.3954
      Cm = -0.0863     CD =  0.02213   =>   CDf =  0.00695    CDp =  0.01518

 Side 1  free  transition at x/c =  0.7686   67
 Side 2  free  transition at x/c =  0.8007   66

   2   rms: 0.8197E-03   max: -.4627E-02   D at   69  2
       a =  0.450      CL =  0.3960
      Cm = -0.0864     CD =  0.02212   =>   CDf =  0.00697    CDp =  0.01515

 Side 1  free  transition at x/c =  0.7686   67
 Side 2  free  transition at x/c =  0.8008   66

   3   rms: 0.1022E-04   max: 0.7347E-04   T at   66  2
       a =  0.450      CL =  0.3960
      Cm = -0.0864     CD =  0.02212   =>   CDf =  0.00697    CDp =  0.01515
 plradd ia,ip,cpol            7          81  0.26027939    

 Point added to stored polar  1
 Save file unspecified or not available
 Dump file unspecified or not available

.OPERva   c>  
.OPERva   c>  
.OPERva   c>   Calculating wake trajectory ...
 Calculating source influence matrix ...

 Solving BL system ...

 Side 1  free  transition at x/c =  0.7686   67
 Side 2  free  transition at x/c =  0.8008   66

   1   rms: 0.1110E-01   max: -.4960E-01   T at   66  2
       a =  0.500      CL =  0.4049
      Cm = -0.0871     CD =  0.02205   =>   CDf =  0.00697    CDp =  0.01508

 Side 1  free  transition at x/c =  0.7677   67
 Side 2  free  transition at x/c =  0.8028   67

   2   rms: 0.3445E-02   max: 0.3290E-01   D at   69  2
       a =  0.500      CL =  0.4036
      Cm = -0.0867     CD =  0.02203   =>   CDf =  0.00699    CDp =  0.01504

 Side 1  free  transition at x/c =  0.7677   67
 Side 2  free  transition at x/c =  0.8022   67

   3   rms: 0.1858E-03   max: 0.2399E-02   D at   69  2
       a =  0.500      CL =  0.4036
      Cm = -0.0867     CD =  0.02204   =>   CDf =  0.00698    CDp =  0.01505

 Side 1  free  transition at x/c =  0.7677   67
 Side 2  free  transition at x/c =  0.8022   67

   4   rms: 0.2092E-05   max: -.1112E-04   D at   83  2
       a =  0.500      CL =  0.4036
      Cm = -0.0867     CD =  0.02204   =>   CDf =  0.00698    CDp =  0.01506
 plradd ia,ip,cpol            8          81  0.26027939    

 Point added to stored polar  1
 Save file unspecified or not available
 Dump file unspecified or not available

.OPERva   c>  
.OPERva   c>  
.OPERva   c>   Calculating wake trajectory ...
 Calculating source influence matrix ...

 Solving BL system ...

 Side 1  free  transition at x/c =  0.7677   67
 Side 2  free  transition at x/c =  0.8022   67

   1   rms: 0.1012E-01   max: -.3641E-01   T at   67  2
       a =  0.550      CL =  0.4101
      Cm = -0.0867     CD =  0.02194   =>   CDf =  0.00698    CDp =  0.01496

 Side 1  free  transition at x/c =  0.7668   67
 Side 2  free  transition at x/c =  0.8034   67

   2   rms: 0.4907E-03   max: -.2867E-02   D at   68  2
       a =  0.550      CL =  0.4103
      Cm = -0.0867     CD =  0.02195   =>   CDf =  0.00698    CDp =  0.01497

 Side 1  free  transition at x/c =  0.7669   67
 Side 2  free  transition at x/c =  0.8034   67

   3   rms: 0.4915E-05   max: 0.1568E-04   T at   67  2
       a =  0.550      CL =  0.4103
      Cm = -0.0867     CD =  0.02195   =>   CDf =  0.00698    CDp =  0.01497
 plradd ia,ip,cpol            9          81  0.26027939    

 Point added to stored polar  1
 Save file unspecified or not available
 Dump file unspecified or not available

.OPERva   c>  
.OPERva   c>  
.OPERva   c>   Calculating wake trajectory ...
 Calculating source influence matrix ...

 Solving BL system ...

 Side 1  free  transition at x/c =  0.7669   67
 Side 2  free  transition at x/c =  0.8034   67

   1   rms: 0.1066E-01   max: -.5726E-01   D at    3  2
       a =  0.600      CL =  0.4172
      Cm = -0.0868     CD =  0.02186   =>   CDf =  0.00699    CDp =  0.01487

 Side 1  free  transition at x/c =  0.7660   67
 Side 2  free  transition at x/c =  0.8046   67

   2   rms: 0.4814E-03   max: -.2883E-02   D at   68  2
       a =  0.600      CL =  0.4175
      Cm = -0.0868     CD =  0.02187   =>   CDf =  0.00699    CDp =  0.01488

 Side 1  free  transition at x/c =  0.7661   67
 Side 2  free  transition at x/c =  0.8046   67

   3   rms: 0.4466E-05   max: -.2951E-05   D at   89  2
       a =  0.600      CL =  0.4175
      Cm = -0.0868     CD =  0.02186   =>   CDf =  0.00699    CDp =  0.01487
 plradd ia,ip,cpol           10          81  0.26027939    

 Point added to stored polar  1
 Save file unspecified or not available
 Dump file unspecified or not available

.OPERva   c>  
.OPERva   c>  
.OPERva   c>   Calculating wake trajectory ...
 Calculating source influence matrix ...

 Solving BL system ...

 Side 1  free  transition at x/c =  0.7661   67
 Side 2  free  transition at x/c =  0.8046   67

   1   rms: 0.1001E-01   max: -.3291E-01   T at   67  2
       a =  0.650      CL =  0.4248
      Cm = -0.0870     CD =  0.02177   =>   CDf =  0.00699    CDp =  0.01478

 Side 1  free  transition at x/c =  0.7653   67
 Side 2  free  transition at x/c =  0.8059   67

   2   rms: 0.4130E-03   max: -.2550E-02   D at   69  2
       a =  0.650      CL =  0.4250
      Cm = -0.0870     CD =  0.02178   =>   CDf =  0.00700    CDp =  0.01478

 Side 1  free  transition at x/c =  0.7653   67
 Side 2  free  transition at x/c =  0.8059   67

   3   rms: 0.2525E-05   max: 0.1008E-04   D at   82  2
       a =  0.650      CL =  0.4250
      Cm = -0.0870     CD =  0.02178   =>   CDf =  0.00700    CDp =  0.01478
 plradd ia,ip,cpol           11          81  0.26027939    

 Point added to stored polar  1
 Save file unspecified or not available
 Dump file unspecified or not available

.OPERva   c>  
.OPERva   c>  
.OPERva   c>   Calculating wake trajectory ...
 Calculating source influence matrix ...

 Solving BL system ...

 Side 1  free  transition at x/c =  0.7653   67
 Side 2  free  transition at x/c =  0.8059   67

   1   rms: 0.9859E-02   max: -.3229E-01   T at   67  2
       a =  0.700      CL =  0.4327
      Cm = -0.0872     CD =  0.02167   =>   CDf =  0.00700    CDp =  0.01468

 Side 1  free  transition at x/c =  0.7646   67
 Side 2  free  transition at x/c =  0.8072   67

   2   rms: 0.4652E-03   max: -.3336E-02   D at   69  2
       a =  0.700      CL =  0.4329
      Cm = -0.0873     CD =  0.02168   =>   CDf =  0.00701    CDp =  0.01468

 Side 1  free  transition at x/c =  0.7646   67
 Side 2  free  transition at x/c =  0.8073   67

   3   rms: 0.2191E-05   max: 0.1419E-04   D at   82  2
       a =  0.700      CL =  0.4329
      Cm = -0.0873     CD =  0.02168   =>   CDf =  0.00701    CDp =  0.01467
 plradd ia,ip,cpol           12          81  0.26027939    

 Point added to stored polar  1
 Save file unspecified or not available
 Dump file unspecified or not available

.OPERva   c>  
.OPERva   c>  
.OPERva   c>   Calculating wake trajectory ...
 Calculating source influence matrix ...

 Solving BL system ...

 Side 1  free  transition at x/c =  0.7646   67
 Side 2  free  transition at x/c =  0.8073   67

   1   rms: 0.9787E-02   max: -.3196E-01   T at   67  2
       a =  0.750      CL =  0.4407
      Cm = -0.0875     CD =  0.02159   =>   CDf =  0.00701    CDp =  0.01458

 Side 1  free  transition at x/c =  0.7640   67
 Side 2  free  transition at x/c =  0.8087   67

   2   rms: 0.4037E-03   max: -.2728E-02   D at   69  2
       a =  0.750      CL =  0.4409
      Cm = -0.0876     CD =  0.02160   =>   CDf =  0.00702    CDp =  0.01458

 Side 1  free  transition at x/c =  0.7640   67
 Side 2  free  transition at x/c =  0.8087   67

   3   rms: 0.3570E-05   max: 0.1351E-04   T at   67  2
       a =  0.750      CL =  0.4409
      Cm = -0.0876     CD =  0.02160   =>   CDf =  0.00702    CDp =  0.01458
 plradd ia,ip,cpol           13          81  0.26027939    

 Point added to stored polar  1
 Save file unspecified or not available
 Dump file unspecified or not available

.OPERva   c>  
.OPERva   c>  
.OPERva   c>   Calculating wake trajectory ...
 Calculating source influence matrix ...

 Solving BL system ...

 Side 1  free  transition at x/c =  0.7640   67
 Side 2  free  transition at x/c =  0.8087   67

   1   rms: 0.1033E-01   max: -.2889E-01   T at   67  2
       a =  0.800      CL =  0.4493
      Cm = -0.0880     CD =  0.02150   =>   CDf =  0.00702    CDp =  0.01448

 Side 1  free  transition at x/c =  0.7634   67
 Side 2  free  transition at x/c =  0.8100   67

   2   rms: 0.1233E-02   max: -.2050E-01   T at    2  2
       a =  0.800      CL =  0.4494
      Cm = -0.0880     CD =  0.02151   =>   CDf =  0.00697    CDp =  0.01454

 Side 1  free  transition at x/c =  0.7634   68
 Side 2  free  transition at x/c =  0.8100   66

   3   rms: 0.2929E-02   max: -.5218E-01   T at    2  1
       a =  0.800      CL =  0.4494
      Cm = -0.0880     CD =  0.02151   =>   CDf =  0.00704    CDp =  0.01447

 Side 1  free  transition at x/c =  0.7634   68
 Side 2  free  transition at x/c =  0.8100   66

   4   rms: 0.4061E-03   max: 0.5603E-02   D at    4  1
       a =  0.800      CL =  0.4494
      Cm = -0.0880     CD =  0.02151   =>   CDf =  0.00704    CDp =  0.01447

 Side 1  free  transition at x/c =  0.7634   68
 Side 2  free  transition at x/c =  0.8100   66

   5   rms: 0.7039E-03   max: -.1169E-01   D at    2  1
       a =  0.800      CL =  0.4494
      Cm = -0.0880     CD =  0.02151   =>   CDf =  0.00704    CDp =  0.01447

 Side 1  free  transition at x/c =  0.7634   68
 Side 2  free  transition at x/c =  0.8100   66

   6   rms: 0.2463E-03   max: -.4331E-02   T at    2  1
       a =  0.800      CL =  0.4494
      Cm = -0.0880     CD =  0.02151   =>   CDf =  0.00704    CDp =  0.01447

 Side 1  free  transition at x/c =  0.7634   68
 Side 2  free  transition at x/c =  0.8100   66

   7   rms: 0.3518E-02   max: 0.6454E-01   D at    2  1
       a =  0.800      CL =  0.4494
      Cm = -0.0880     CD =  0.02151   =>   CDf =  0.00704    CDp =  0.01447

 Side 1  free  transition at x/c =  0.7634   68
 Side 2  free  transition at x/c =  0.8100   66
 idif Ue xi dudx           1  0.15735242      1.84690952E-03   85.197685    
 Uenew xinew           2  1.75339737E-05  2.05803403E-07

   8   rms: 0.8875E-03   max: -.1663E-01   D at    2  1
       a =  0.800      CL =  0.4494
      Cm = -0.0880     CD =  0.02151   =>   CDf =  0.00711    CDp =  0.01439

 Side 1  free  transition at x/c =  0.7634   67
 Side 2  free  transition at x/c =  0.8100   67

   9   rms: 0.7864E-02   max: 0.1421E+00   T at    2  2
       a =  0.800      CL =  0.4494
      Cm = -0.0880     CD =  0.02151   =>   CDf =  0.00704    CDp =  0.01447

 Side 1  free  transition at x/c =  0.7634   67
 Side 2  free  transition at x/c =  0.8100   67

  10   rms: 0.7329E-03   max: 0.1325E-01   D at    2  2
       a =  0.800      CL =  0.4494
      Cm = -0.0880     CD =  0.02151   =>   CDf =  0.00697    CDp =  0.01454
 VISCAL:  Convergence failed

.OPERva   c>  
.OPERva   c>  
.OPERva   c>   Calculating wake trajectory ...
 Calculating source influence matrix ...

 Solving BL system ...

 Side 1  free  transition at x/c =  0.7634   68
 Side 2  free  transition at x/c =  0.8100   66

   1   rms: 0.2998E+00   max: -.5448E+01   D at    2  1   RLX: 0.092
       a =  0.850      CL =  0.4502
      Cm = -0.0881     CD =  0.02150   =>   CDf =  0.00704    CDp =  0.01446

 Side 1  free  transition at x/c =  0.7633   68
 Side 2  free  transition at x/c =  0.8102   66

   2   rms: 0.3448E+00   max: 0.6395E+01   T at    2  1   RLX: 0.235
       a =  0.850      CL =  0.4520
      Cm = -0.0881     CD =  0.02148   =>   CDf =  0.00704    CDp =  0.01444

 Side 1  free  transition at x/c =  0.7632   68
 Side 2  free  transition at x/c =  0.8105   66

   3   rms: 0.8668E-02   max: 0.6799E-01   D at    4  1
       a =  0.850      CL =  0.4579
      Cm = -0.0885     CD =  0.02142   =>   CDf =  0.00704    CDp =  0.01438

 Side 1  free  transition at x/c =  0.7628   67
 Side 2  free  transition at x/c =  0.8116   66

   4   rms: 0.2113E-01   max: -.1070E+00   T at   67  1
       a =  0.850      CL =  0.4743
      Cm = -0.0909     CD =  0.02099   =>   CDf =  0.00705    CDp =  0.01394

 Side 1  free  transition at x/c =  0.7679   68
 Side 2  free  transition at x/c =  0.8114   66

   5   rms: 0.3445E-01   max: 0.2172E+00   D at   70  1
       a =  0.850      CL =  0.4600
      Cm = -0.0889     CD =  0.02138   =>   CDf =  0.00704    CDp =  0.01433

 Side 1  free  transition at x/c =  0.7629   67
 Side 2  free  transition at x/c =  0.8115   66

   6   rms: 0.1957E-01   max: -.1023E+00   D at   80  1
       a =  0.850      CL =  0.4725
      Cm = -0.0907     CD =  0.02105   =>   CDf =  0.00704    CDp =  0.01401

 Side 1  free  transition at x/c =  0.7671   68
 Side 2  free  transition at x/c =  0.8114   66

   7   rms: 0.3008E-01   max: 0.1867E+00   D at   70  1
       a =  0.850      CL =  0.4592
      Cm = -0.0887     CD =  0.02140   =>   CDf =  0.00704    CDp =  0.01436

 Side 1  free  transition at x/c =  0.7628   67
 Side 2  free  transition at x/c =  0.8115   66

   8   rms: 0.2097E-01   max: -.1051E+00   D at   78  1
       a =  0.850      CL =  0.4735
      Cm = -0.0908     CD =  0.02102   =>   CDf =  0.00704    CDp =  0.01398

 Side 1  free  transition at x/c =  0.7675   68
 Side 2  free  transition at x/c =  0.8114   66

   9   rms: 0.3215E-01   max: 0.2011E+00   D at   70  1
       a =  0.850      CL =  0.4597
      Cm = -0.0888     CD =  0.02139   =>   CDf =  0.00704    CDp =  0.01434

 Side 1  free  transition at x/c =  0.7629   67
 Side 2  free  transition at x/c =  0.8115   66

  10   rms: 0.1982E-01   max: -.1017E+00   D at   80  1
       a =  0.850      CL =  0.4728
      Cm = -0.0907     CD =  0.02104   =>   CDf =  0.00704    CDp =  0.01400
 VISCAL:  Convergence failed

.OPERva   c>  
.OPERva   c>  
.OPERva   c>   Calculating wake trajectory ...
 Calculating source influence matrix ...

 Solving BL system ...

 Side 1  free  transition at x/c =  0.7673   68
 Side 2  free  transition at x/c =  0.8114   66

   1   rms: 0.2803E-01   max: 0.1741E+00   D at   70  1
       a =  0.900      CL =  0.4680
      Cm = -0.0893     CD =  0.02131   =>   CDf =  0.00704    CDp =  0.01426

 Side 1  free  transition at x/c =  0.7622   67
 Side 2  free  transition at x/c =  0.8130   66

   2   rms: 0.1098E+00   max: -.5315E+00   T at   67  1   RLX: 0.941
       a =  0.900      CL =  0.5473
      Cm = -0.1013     CD =  0.01927   =>   CDf =  0.00705    CDp =  0.01222

 MRCHDU: Convergence failed at  69  side 1    Res =  0.3885E+01
 MRCHDU: Convergence failed at  70  side 1    Res =  0.5132E+01
 MRCHDU: Convergence failed at  71  side 1    Res =  0.5828E+02
 MRCHDU: Convergence failed at  72  side 1    Res =  0.8686E+01
 MRCHDU: Convergence failed at  73  side 1    Res =  0.7769E+01
 MRCHDU: Convergence failed at  74  side 1    Res =  0.1400E+02
 MRCHDU: Convergence failed at  75  side 1    Res =  0.3084E+02
 MRCHDU: Convergence failed at  76  side 1    Res =  0.1088E+03
 MRCHDU: Convergence failed at  77  side 1    Res =  0.4072E+03
 MRCHDU: Convergence failed at  78  side 1    Res =  0.1394E+03
 MRCHDU: Convergence failed at  79  side 1    Res =  0.1863E+03
 MRCHDU: Convergence failed at  80  side 1    Res =  0.7798E+02
 MRCHDU: Convergence failed at  81  side 1    Res =  0.2557E+02
 MRCHDU: Convergence failed at  82  side 1    Res =  0.1358E+02
 MRCHDU: Convergence failed at  83  side 1    Res =  0.1143E+02
 Side 1  free  transition at x/c =  0.7899   69
 Side 2  free  transition at x/c =  0.8121   66
 idif Ue xi dudx           1  0.21134642      2.59065628E-03   81.580261    
 Uenew xinew           2  6.06750548E-02  7.43746758E-04

   3   rms: 0.4634E+00   max: 0.1907E+01   C at   69  1   RLX: 0.622
       a =  0.900      CL =  0.4267
      Cm = -0.1033     CD =  0.01207   =>   CDf =  0.00697    CDp =  0.00510

 Side 1  free  transition at x/c =  0.7489   66
 Side 2  free  transition at x/c =  0.8176   67

   4   rms: 0.8770E-01   max: -.5401E+00   D at   78  1   RLX: 0.926
       a =  0.900      CL =  0.3815
      Cm = -0.0763     CD =  0.02453   =>   CDf =  0.00689    CDp =  0.01764

 Side 1  free  transition at x/c =  0.7465   66
 Side 2  free  transition at x/c =  0.8171   67

   5   rms: 0.7672E-01   max: 0.3525E+00   D at   82  1
       a =  0.900      CL =  0.4556
      Cm = -0.0886     CD =  0.02210   =>   CDf =  0.00694    CDp =  0.01515

 Side 1  free  transition at x/c =  0.7536   67
 Side 2  free  transition at x/c =  0.8135   66

   6   rms: 0.1834E-01   max: -.1048E+00   D at   67  1
       a =  0.900      CL =  0.4446
      Cm = -0.0857     CD =  0.02193   =>   CDf =  0.00697    CDp =  0.01497

 Side 1  free  transition at x/c =  0.7563   67
 Side 2  free  transition at x/c =  0.8137   66

   7   rms: 0.1583E-02   max: 0.1552E-01   D at    4  1
       a =  0.900      CL =  0.4440
      Cm = -0.0856     CD =  0.02191   =>   CDf =  0.00700    CDp =  0.01491

 Side 1  free  transition at x/c =  0.7562   67
 Side 2  free  transition at x/c =  0.8136   66

   8   rms: 0.1450E-04   max: -.1293E-03   T at   66  2
       a =  0.900      CL =  0.4440
      Cm = -0.0856     CD =  0.02191   =>   CDf =  0.00700    CDp =  0.01491
 plradd ia,ip,cpol           14          82  0.26027939    

 Point added to stored polar  1
 Save file unspecified or not available
 Dump file unspecified or not available

.OPERva   c>  
.OPERva   c>  
.OPERva   c>   Calculating wake trajectory ...
 Calculating source influence matrix ...

 Solving BL system ...

 Side 1  free  transition at x/c =  0.7562   67
 Side 2  free  transition at x/c =  0.8136   66

   1   rms: 0.8953E-02   max: -.3356E-01   T at   66  2
       a =  0.950      CL =  0.4491
      Cm = -0.0856     CD =  0.02192   =>   CDf =  0.00700    CDp =  0.01492

 Side 1  free  transition at x/c =  0.7544   67
 Side 2  free  transition at x/c =  0.8152   66

   2   rms: 0.1157E-02   max: -.4915E-02   D at   70  1
       a =  0.950      CL =  0.4499
      Cm = -0.0858     CD =  0.02190   =>   CDf =  0.00700    CDp =  0.01489

 Side 1  free  transition at x/c =  0.7546   67
 Side 2  free  transition at x/c =  0.8152   66

   3   rms: 0.3034E-04   max: 0.1305E-03   T at   66  2
       a =  0.950      CL =  0.4499
      Cm = -0.0858     CD =  0.02190   =>   CDf =  0.00701    CDp =  0.01489
 plradd ia,ip,cpol           15          82  0.24501994    

 Point added to stored polar  1
 Save file unspecified or not available
 Dump file unspecified or not available

.OPERva   c>  
.OPERva   c>  
.OPERva   c>   Calculating wake trajectory ...
 Calculating source influence matrix ...

 Solving BL system ...

 Side 1  free  transition at x/c =  0.7546   67
 Side 2  free  transition at x/c =  0.8152   66

   1   rms: 0.9920E-02   max: -.3753E-01   T at   66  2
       a =  1.000      CL =  0.4565
      Cm = -0.0860     CD =  0.02188   =>   CDf =  0.00701    CDp =  0.01487

 Side 1  free  transition at x/c =  0.7532   67
 Side 2  free  transition at x/c =  0.8169   66

   2   rms: 0.9200E-03   max: -.3712E-02   D at   69  2
       a =  1.000      CL =  0.4571
      Cm = -0.0861     CD =  0.02186   =>   CDf =  0.00702    CDp =  0.01484

 Side 1  free  transition at x/c =  0.7533   67
 Side 2  free  transition at x/c =  0.8170   66

   3   rms: 0.1898E-04   max: 0.8925E-04   T at   66  2
       a =  1.000      CL =  0.4571
      Cm = -0.0861     CD =  0.02186   =>   CDf =  0.00702    CDp =  0.01484
 plradd ia,ip,cpol           16          82  0.24501994    

 Point added to stored polar  1
 Save file unspecified or not available
 Dump file unspecified or not available

.OPERva   c>  
.OPERva   c>  
.OPERva   c>   Calculating wake trajectory ...
 Calculating source influence matrix ...

 Solving BL system ...

 Side 1  free  transition at x/c =  0.7533   67
 Side 2  free  transition at x/c =  0.8170   66

   1   rms: 0.1036E-01   max: -.4052E-01   T at   66  2
       a =  1.050      CL =  0.4650
      Cm = -0.0866     CD =  0.02182   =>   CDf =  0.00702    CDp =  0.01480

 Side 1  free  transition at x/c =  0.7521   67
 Side 2  free  transition at x/c =  0.8187   67

   2   rms: 0.1926E-02   max: -.3567E-01   D at   66  2
       a =  1.050      CL =  0.4645
      Cm = -0.0864     CD =  0.02180   =>   CDf =  0.00704    CDp =  0.01476

 Side 1  free  transition at x/c =  0.7522   67
 Side 2  free  transition at x/c =  0.8184   67

   3   rms: 0.1225E-03   max: 0.1217E-02   D at   69  2
       a =  1.050      CL =  0.4644
      Cm = -0.0864     CD =  0.02180   =>   CDf =  0.00703    CDp =  0.01477

 Side 1  free  transition at x/c =  0.7522   67
 Side 2  free  transition at x/c =  0.8184   67

   4   rms: 0.1567E-05   max: 0.7636E-05   D at   75  1
       a =  1.050      CL =  0.4644
      Cm = -0.0864     CD =  0.02180   =>   CDf =  0.00703    CDp =  0.01477
 plradd ia,ip,cpol           17          82  0.24501994    

 Point added to stored polar  1
 Save file unspecified or not available
 Dump file unspecified or not available

.OPERva   c>  
.OPERva   c>  
.OPERva   c>   Calculating wake trajectory ...
 Calculating source influence matrix ...

 Solving BL system ...

 Side 1  free  transition at x/c =  0.7522   67
 Side 2  free  transition at x/c =  0.8184   67

   1   rms: 0.9496E-02   max: -.3501E-01   T at   67  2
       a =  1.100      CL =  0.4704
      Cm = -0.0864     CD =  0.02172   =>   CDf =  0.00703    CDp =  0.01469

 Side 1  free  transition at x/c =  0.7511   67
 Side 2  free  transition at x/c =  0.8195   67

   2   rms: 0.5613E-03   max: -.2611E-02   D at   68  2
       a =  1.100      CL =  0.4707
      Cm = -0.0864     CD =  0.02172   =>   CDf =  0.00703    CDp =  0.01469

 Side 1  free  transition at x/c =  0.7512   67
 Side 2  free  transition at x/c =  0.8196   67

   3   rms: 0.9381E-05   max: 0.3378E-04   T at   67  2
       a =  1.100      CL =  0.4707
      Cm = -0.0864     CD =  0.02172   =>   CDf =  0.00703    CDp =  0.01469
 plradd ia,ip,cpol           18          82  0.24501994    

 Point added to stored polar  1
 Save file unspecified or not available
 Dump file unspecified or not available

.OPERva   c>  
.OPERva   c>  
.OPERva   c>   Calculating wake trajectory ...
 Calculating source influence matrix ...

 Solving BL system ...

 Side 1  free  transition at x/c =  0.7512   67
 Side 2  free  transition at x/c =  0.8196   67

   1   rms: 0.9339E-02   max: -.3167E-01   T at   67  2
       a =  1.150      CL =  0.4773
      Cm = -0.0865     CD =  0.02164   =>   CDf =  0.00703    CDp =  0.01460

 Side 1  free  transition at x/c =  0.7502   67
 Side 2  free  transition at x/c =  0.8207   67

   2   rms: 0.5348E-03   max: -.2990E-02   D at   68  2
       a =  1.150      CL =  0.4776
      Cm = -0.0865     CD =  0.02164   =>   CDf =  0.00704    CDp =  0.01461

 Side 1  free  transition at x/c =  0.7503   67
 Side 2  free  transition at x/c =  0.8207   67

   3   rms: 0.7673E-05   max: 0.2677E-04   T at   67  2
       a =  1.150      CL =  0.4776
      Cm = -0.0865     CD =  0.02164   =>   CDf =  0.00704    CDp =  0.01461
 plradd ia,ip,cpol           19          82  0.24501994    

 Point added to stored polar  1
 Save file unspecified or not available
 Dump file unspecified or not available

.OPERva   c>  
.OPERva   c>  
.OPERva   c>   Calculating wake trajectory ...
 Calculating source influence matrix ...

 Solving BL system ...

 Side 1  free  transition at x/c =  0.7503   67
 Side 2  free  transition at x/c =  0.8207   67

   1   rms: 0.9871E-02   max: -.3087E-01   T at   67  2
       a =  1.200      CL =  0.4846
      Cm = -0.0866     CD =  0.02155   =>   CDf =  0.00704    CDp =  0.01451

 Side 1  free  transition at x/c =  0.7494   67
 Side 2  free  transition at x/c =  0.8219   67

   2   rms: 0.4332E-03   max: -.2184E-02   D at   68  2
       a =  1.200      CL =  0.4849
      Cm = -0.0867     CD =  0.02156   =>   CDf =  0.00704    CDp =  0.01451

 Side 1  free  transition at x/c =  0.7495   67
 Side 2  free  transition at x/c =  0.8219   67

   3   rms: 0.5775E-05   max: 0.2124E-04   D at   70  2
       a =  1.200      CL =  0.4849
      Cm = -0.0867     CD =  0.02156   =>   CDf =  0.00704    CDp =  0.01451
 plradd ia,ip,cpol           20          82  0.24501994    

 Point added to stored polar  1
 Save file unspecified or not available
 Dump file unspecified or not available

.OPERva   c>  
.OPERva   c>  
.OPERva   c>   Calculating wake trajectory ...
 Calculating source influence matrix ...

 Solving BL system ...

 Side 1  free  transition at x/c =  0.7495   67
 Side 2  free  transition at x/c =  0.8219   67

   1   rms: 0.1156E-01   max: -.7116E-01   D at    3  2
       a =  1.250      CL =  0.4922
      Cm = -0.0868     CD =  0.02146   =>   CDf =  0.00704    CDp =  0.01442

 Side 1  free  transition at x/c =  0.7487   67
 Side 2  free  transition at x/c =  0.8232   67

   2   rms: 0.4142E-03   max: -.2143E-02   D at   68  2
       a =  1.250      CL =  0.4924
      Cm = -0.0869     CD =  0.02147   =>   CDf =  0.00705    CDp =  0.01442

 Side 1  free  transition at x/c =  0.7487   67
 Side 2  free  transition at x/c =  0.8232   67

   3   rms: 0.5260E-05   max: 0.1939E-04   D at   79  2
       a =  1.250      CL =  0.4924
      Cm = -0.0869     CD =  0.02147   =>   CDf =  0.00705    CDp =  0.01442
 plradd ia,ip,cpol           21          82  0.24501994    

 Point added to stored polar  1
 Save file unspecified or not available
 Dump file unspecified or not available

.OPERva   c>  
.OPERva   c>  
.OPERva   c>   Calculating wake trajectory ...
 Calculating source influence matrix ...

 Solving BL system ...

 Side 1  free  transition at x/c =  0.7487   67
 Side 2  free  transition at x/c =  0.8232   67

   1   rms: 0.1146E-01   max: 0.6298E-01   D at    3  1
       a =  1.300      CL =  0.5002
      Cm = -0.0872     CD =  0.02137   =>   CDf =  0.00705    CDp =  0.01432

 Side 1  free  transition at x/c =  0.7479   67
 Side 2  free  transition at x/c =  0.8245   67

   2   rms: 0.3728E-03   max: -.1854E-02   D at   69  2
       a =  1.300      CL =  0.5003
      Cm = -0.0872     CD =  0.02138   =>   CDf =  0.00706    CDp =  0.01432

 Side 1  free  transition at x/c =  0.7480   67
 Side 2  free  transition at x/c =  0.8245   67

   3   rms: 0.4061E-05   max: 0.1254E-04   D at   70  2
       a =  1.300      CL =  0.5003
      Cm = -0.0872     CD =  0.02138   =>   CDf =  0.00706    CDp =  0.01432
 plradd ia,ip,cpol           22          82  0.24501994    

 Point added to stored polar  1
 Save file unspecified or not available
 Dump file unspecified or not available

.OPERva   c>  
.OPERva   c>  
.OPERva   c>   Calculating wake trajectory ...
 Calculating source influence matrix ...

 Solving BL system ...

 Side 1  free  transition at x/c =  0.7480   67
 Side 2  free  transition at x/c =  0.8245   67

   1   rms: 0.1034E-01   max: -.2741E-01   T at   67  2
       a =  1.350      CL =  0.5085
      Cm = -0.0875     CD =  0.02128   =>   CDf =  0.00706    CDp =  0.01422

 Side 1  free  transition at x/c =  0.7472   67
 Side 2  free  transition at x/c =  0.8258   67

   2   rms: 0.3370E-03   max: -.1599E-02   D at   68  1
       a =  1.350      CL =  0.5087
      Cm = -0.0876     CD =  0.02128   =>   CDf =  0.00708    CDp =  0.01421

 Side 1  free  transition at x/c =  0.7473   67
 Side 2  free  transition at x/c =  0.8258   67

   3   rms: 0.4398E-05   max: 0.2043E-04   D at   79  2
       a =  1.350      CL =  0.5087
      Cm = -0.0876     CD =  0.02128   =>   CDf =  0.00708    CDp =  0.01421
 plradd ia,ip,cpol           23          82  0.24501994    

 Point added to stored polar  1
 Save file unspecified or not available
 Dump file unspecified or not available

.OPERva   c>  
.OPERva   c>  
.OPERva   c>   Calculating wake trajectory ...
 Calculating source influence matrix ...

 Solving BL system ...

 Side 1  free  transition at x/c =  0.7473   67
 Side 2  free  transition at x/c =  0.8258   67

   1   rms: 0.1061E-01   max: -.2911E-01   T at   67  2
       a =  1.400      CL =  0.5171
      Cm = -0.0880     CD =  0.02119   =>   CDf =  0.00708    CDp =  0.01411

 Side 1  free  transition at x/c =  0.7466   67
 Side 2  free  transition at x/c =  0.8273   67

   2   rms: 0.3763E-03   max: -.1823E-02   D at   68  1
       a =  1.400      CL =  0.5173
      Cm = -0.0880     CD =  0.02119   =>   CDf =  0.00709    CDp =  0.01410

 Side 1  free  transition at x/c =  0.7466   67
 Side 2  free  transition at x/c =  0.8273   67

   3   rms: 0.2861E-05   max: 0.1634E-04   D at   70  2
       a =  1.400      CL =  0.5173
      Cm = -0.0880     CD =  0.02119   =>   CDf =  0.00709    CDp =  0.01410
 plradd ia,ip,cpol           24          82  0.24501994    

 Point added to stored polar  1
 Save file unspecified or not available
 Dump file unspecified or not available

.OPERva   c>  
.OPERva   c>  
.OPERva   c>   Calculating wake trajectory ...
 Calculating source influence matrix ...

 Solving BL system ...

 Side 1  free  transition at x/c =  0.7466   67
 Side 2  free  transition at x/c =  0.8273   67

   1   rms: 0.1055E-01   max: -.2873E-01   T at   67  2
       a =  1.450      CL =  0.5260
      Cm = -0.0885     CD =  0.02110   =>   CDf =  0.00709    CDp =  0.01401

 Side 1  free  transition at x/c =  0.7460   66
 Side 2  free  transition at x/c =  0.8288   67

   2   rms: 0.1399E+00   max: -.6651E+00   T at   66  1   RLX: 0.752
       a =  1.450      CL =  0.6054
      Cm = -0.1004     CD =  0.01890   =>   CDf =  0.00701    CDp =  0.01189

 MRCHDU: Convergence failed at  69  side 1    Res =  0.6421E+01
 MRCHDU: Convergence failed at  70  side 1    Res =  0.6560E+01
 MRCHDU: Convergence failed at  71  side 1    Res =  0.2244E+02
 MRCHDU: Convergence failed at  72  side 1    Res =  0.7405E+01
 MRCHDU: Convergence failed at  73  side 1    Res =  0.8786E+01
 MRCHDU: Convergence failed at  74  side 1    Res =  0.1704E+02
 MRCHDU: Convergence failed at  75  side 1    Res =  0.4450E+02
 MRCHDU: Convergence failed at  76  side 1    Res =  0.2005E+04
 MRCHDU: Convergence failed at  77  side 1    Res =  0.6109E+02
 MRCHDU: Convergence failed at  78  side 1    Res =  0.1523E+03
 MRCHDU: Convergence failed at  79  side 1    Res =  0.4467E+03
 MRCHDU: Convergence failed at  80  side 1    Res =  0.1722E+04
 MRCHDU: Convergence failed at  81  side 1    Res =  0.7589E+02
 MRCHDU: Convergence failed at  82  side 1    Res =  0.2531E+02
 MRCHDU: Convergence failed at  83  side 1    Res =  0.1160E+02
 MRCHDU: Convergence failed at  84  side 1    Res =  0.1320E+02
 Side 1  free  transition at x/c =  0.7740   69
 Side 2  free  transition at x/c =  0.8274   66
 idif Ue xi dudx           1  0.24026681      2.94113159E-03   81.691963    
 Uenew xinew           2  8.90775174E-02  1.09040737E-03

   3   rms: 0.4855E+00   max: 0.1890E+01   C at   69  1   RLX: 0.582
       a =  1.450      CL =  0.4989
      Cm = -0.1095     CD =  0.01136   =>   CDf =  0.00696    CDp =  0.00440

 Side 1  free  transition at x/c =  0.7343   66
 Side 2  free  transition at x/c =  0.8339   67

   4   rms: 0.9163E-01   max: -.5488E+00   D at   78  1   RLX: 0.911
       a =  1.450      CL =  0.4356
      Cm = -0.0755     CD =  0.02457   =>   CDf =  0.00690    CDp =  0.01767

 Side 1  free  transition at x/c =  0.7300   66
 Side 2  free  transition at x/c =  0.8342   67

   5   rms: 0.8290E-01   max: 0.3317E+00   D at   83  1
       a =  1.450      CL =  0.5114
      Cm = -0.0874     CD =  0.02191   =>   CDf =  0.00703    CDp =  0.01488

 Side 1  free  transition at x/c =  0.7375   66
 Side 2  free  transition at x/c =  0.8291   67

   6   rms: 0.1955E-01   max: -.1176E+00   D at   69  1
       a =  1.450      CL =  0.5085
      Cm = -0.0860     CD =  0.02161   =>   CDf =  0.00700    CDp =  0.01460

 Side 1  free  transition at x/c =  0.7414   66
 Side 2  free  transition at x/c =  0.8293   67

   7   rms: 0.7824E-03   max: 0.6962E-02   D at   81  2
       a =  1.450      CL =  0.5086
      Cm = -0.0859     CD =  0.02156   =>   CDf =  0.00705    CDp =  0.01451

 Side 1  free  transition at x/c =  0.7416   66
 Side 2  free  transition at x/c =  0.8292   67

   8   rms: 0.2559E-04   max: -.6981E-04   D at   81  2
       a =  1.450      CL =  0.5086
      Cm = -0.0859     CD =  0.02156   =>   CDf =  0.00705    CDp =  0.01451
 plradd ia,ip,cpol           25          82  0.24501994    

 Point added to stored polar  1
 Save file unspecified or not available
 Dump file unspecified or not available

.OPERva   c>  
.OPERva   c>  
.OPERva   c>   Calculating wake trajectory ...
 Calculating source influence matrix ...

 Solving BL system ...

 Side 1  free  transition at x/c =  0.7416   66
 Side 2  free  transition at x/c =  0.8292   67

   1   rms: 0.7920E-02   max: 0.5789E-01   T at   66  1
       a =  1.500      CL =  0.5104
      Cm = -0.0854     CD =  0.02166   =>   CDf =  0.00705    CDp =  0.01461

 Side 1  free  transition at x/c =  0.7389   66
 Side 2  free  transition at x/c =  0.8309   67

   2   rms: 0.2848E-02   max: -.1295E-01   D at   69  1
       a =  1.500      CL =  0.5123
      Cm = -0.0857     CD =  0.02160   =>   CDf =  0.00704    CDp =  0.01456

 Side 1  free  transition at x/c =  0.7394   66
 Side 2  free  transition at x/c =  0.8309   67

   3   rms: 0.1515E-03   max: -.5613E-03   T at   66  1
       a =  1.500      CL =  0.5125
      Cm = -0.0857     CD =  0.02160   =>   CDf =  0.00704    CDp =  0.01455

 Side 1  free  transition at x/c =  0.7394   66
 Side 2  free  transition at x/c =  0.8309   67

   4   rms: 0.3609E-05   max: 0.2377E-04   T at   67  2
       a =  1.500      CL =  0.5125
      Cm = -0.0857     CD =  0.02160   =>   CDf =  0.00704    CDp =  0.01455
 plradd ia,ip,cpol           26          82  0.24501994    

 Point added to stored polar  1
 Save file unspecified or not available
 Dump file unspecified or not available

.OPERva   c>  
.OPERva   c>  
.OPERva   c>   Calculating wake trajectory ...
 Calculating source influence matrix ...

 Solving BL system ...

 Side 1  free  transition at x/c =  0.7394   66
 Side 2  free  transition at x/c =  0.8309   67

   1   rms: 0.8347E-02   max: -.3318E-01   T at   67  2
       a =  1.550      CL =  0.5176
      Cm = -0.0857     CD =  0.02160   =>   CDf =  0.00705    CDp =  0.01456

 Side 1  free  transition at x/c =  0.7376   66
 Side 2  free  transition at x/c =  0.8325   67

   2   rms: 0.1457E-02   max: 0.7586E-02   D at    3  2
       a =  1.550      CL =  0.5186
      Cm = -0.0859     CD =  0.02158   =>   CDf =  0.00695    CDp =  0.01462

 Side 1  free  transition at x/c =  0.7378   67
 Side 2  free  transition at x/c =  0.8326   66

   3   rms: 0.1394E-02   max: -.2394E-01   T at    2  1
       a =  1.550      CL =  0.5186
      Cm = -0.0859     CD =  0.02158   =>   CDf =  0.00705    CDp =  0.01453

 Side 1  free  transition at x/c =  0.7378   67
 Side 2  free  transition at x/c =  0.8326   66

   4   rms: 0.4682E-03   max: 0.6333E-02   D at    4  1
       a =  1.550      CL =  0.5186
      Cm = -0.0859     CD =  0.02158   =>   CDf =  0.00705    CDp =  0.01453

 Side 1  free  transition at x/c =  0.7378   67
 Side 2  free  transition at x/c =  0.8326   66

   5   rms: 0.2950E-04   max: -.3967E-03   D at    4  1
       a =  1.550      CL =  0.5186
      Cm = -0.0859     CD =  0.02158   =>   CDf =  0.00705    CDp =  0.01453
 plradd ia,ip,cpol           27          83  0.24501994    

 Point added to stored polar  1
 Save file unspecified or not available
 Dump file unspecified or not available

.OPERva   c>  
.OPERva   c>  
.OPERva   c>   Calculating wake trajectory ...
 Calculating source influence matrix ...

 Solving BL system ...

 Side 1  free  transition at x/c =  0.7378   67
 Side 2  free  transition at x/c =  0.8326   66

   1   rms: 0.9345E-02   max: -.3464E-01   T at   66  2
       a =  1.600      CL =  0.5256
      Cm = -0.0862     CD =  0.02154   =>   CDf =  0.00705    CDp =  0.01449

 MRCHDU: Convergence failed at  66  side 2    Res =  0.3630E-04
 Side 1  free  transition at x/c =  0.7363   67
 Side 2  free  transition at x/c =  0.8341   66

   2   rms: 0.1145E-02   max: -.7304E-02   D at    4  1
       a =  1.600      CL =  0.5262
      Cm = -0.0863     CD =  0.02153   =>   CDf =  0.00706    CDp =  0.01446

 Side 1  free  transition at x/c =  0.7365   67
 Side 2  free  transition at x/c =  0.8342   66

   3   rms: 0.2198E-04   max: 0.1061E-03   T at   66  2
       a =  1.600      CL =  0.5263
      Cm = -0.0863     CD =  0.02153   =>   CDf =  0.00706    CDp =  0.01446
 plradd ia,ip,cpol           28          83  0.24501994    

 Point added to stored polar  1
 Save file unspecified or not available
 Dump file unspecified or not available

.OPERva   c>  
.OPERva   c>  
.OPERva   c>   Calculating wake trajectory ...
 Calculating source influence matrix ...

 Solving BL system ...

 Side 1  free  transition at x/c =  0.7365   67
 Side 2  free  transition at x/c =  0.8342   66

   1   rms: 0.1113E-01   max: 0.6766E-01   D at    4  1
       a =  1.650      CL =  0.5344
      Cm = -0.0869     CD =  0.02147   =>   CDf =  0.00706    CDp =  0.01441

 Side 1  free  transition at x/c =  0.7352   67
 Side 2  free  transition at x/c =  0.8360   67

   2   rms: 0.3694E-02   max: 0.3858E-01   D at   68  2
       a =  1.650      CL =  0.5327
      Cm = -0.0864     CD =  0.02144   =>   CDf =  0.00707    CDp =  0.01436

 Side 1  free  transition at x/c =  0.7353   67
 Side 2  free  transition at x/c =  0.8353   67

   3   rms: 0.2041E-03   max: 0.2427E-02   D at   69  2
       a =  1.650      CL =  0.5326
      Cm = -0.0863     CD =  0.02144   =>   CDf =  0.00706    CDp =  0.01438

 Side 1  free  transition at x/c =  0.7353   67
 Side 2  free  transition at x/c =  0.8353   67

   4   rms: 0.2187E-05   max: 0.1600E-04   D at    4  1
       a =  1.650      CL =  0.5326
      Cm = -0.0863     CD =  0.02145   =>   CDf =  0.00706    CDp =  0.01438
 plradd ia,ip,cpol           29          83  0.24501994    

 Point added to stored polar  1
 Save file unspecified or not available
 Dump file unspecified or not available

.OPERva   c>  
.OPERva   c>  
.OPERva   c>   Calculating wake trajectory ...
 Calculating source influence matrix ...

 Solving BL system ...

 Side 1  free  transition at x/c =  0.7353   67
 Side 2  free  transition at x/c =  0.8353   67

   1   rms: 0.9786E-02   max: -.3170E-01   T at   67  2
       a =  1.700      CL =  0.5390
      Cm = -0.0863     CD =  0.02135   =>   CDf =  0.00707    CDp =  0.01428

 Side 1  free  transition at x/c =  0.7342   67
 Side 2  free  transition at x/c =  0.8364   67

   2   rms: 0.5332E-03   max: -.2518E-02   D at   69  1
       a =  1.700      CL =  0.5393
      Cm = -0.0864     CD =  0.02135   =>   CDf =  0.00707    CDp =  0.01428

 Side 1  free  transition at x/c =  0.7342   67
 Side 2  free  transition at x/c =  0.8364   67

   3   rms: 0.8682E-05   max: 0.3343E-04   D at   69  2
       a =  1.700      CL =  0.5393
      Cm = -0.0864     CD =  0.02135   =>   CDf =  0.00707    CDp =  0.01428
 plradd ia,ip,cpol           30          83  0.24501994    

 Point added to stored polar  1
 Save file unspecified or not available
 Dump file unspecified or not available

.OPERva   c>  
.OPERva   c>  
.OPERva   c>   Calculating wake trajectory ...
 Calculating source influence matrix ...

 Solving BL system ...

 Side 1  free  transition at x/c =  0.7342   67
 Side 2  free  transition at x/c =  0.8364   67

   1   rms: 0.9752E-02   max: -.4199E-01   D at    5  2
       a =  1.750      CL =  0.5461
      Cm = -0.0865     CD =  0.02125   =>   CDf =  0.00707    CDp =  0.01419

 Side 1  free  transition at x/c =  0.7332   67
 Side 2  free  transition at x/c =  0.8377   67

   2   rms: 0.4912E-03   max: -.2328E-02   D at   69  1
       a =  1.750      CL =  0.5464
      Cm = -0.0865     CD =  0.02126   =>   CDf =  0.00707    CDp =  0.01419

 Side 1  free  transition at x/c =  0.7333   67
 Side 2  free  transition at x/c =  0.8377   67

   3   rms: 0.7317E-05   max: 0.2460E-04   T at   67  2
       a =  1.750      CL =  0.5464
      Cm = -0.0865     CD =  0.02126   =>   CDf =  0.00707    CDp =  0.01419
 plradd ia,ip,cpol           31          83  0.24501994    

 Point added to stored polar  1
 Save file unspecified or not available
 Dump file unspecified or not available

.OPERva   c>  
.OPERva   c>  
.OPERva   c>   Calculating wake trajectory ...
 Calculating source influence matrix ...

 Solving BL system ...

 Side 1  free  transition at x/c =  0.7333   67
 Side 2  free  transition at x/c =  0.8377   67

   1   rms: 0.1014E-01   max: -.2859E-01   T at   67  2
       a =  1.800      CL =  0.5537
      Cm = -0.0867     CD =  0.02115   =>   CDf =  0.00708    CDp =  0.01408

 Side 1  free  transition at x/c =  0.7324   67
 Side 2  free  transition at x/c =  0.8389   67

   2   rms: 0.3913E-03   max: -.1990E-02   D at   68  2
       a =  1.800      CL =  0.5540
      Cm = -0.0867     CD =  0.02116   =>   CDf =  0.00708    CDp =  0.01408

 Side 1  free  transition at x/c =  0.7324   67
 Side 2  free  transition at x/c =  0.8389   67

   3   rms: 0.4603E-05   max: 0.2234E-04   D at   69  2
       a =  1.800      CL =  0.5540
      Cm = -0.0867     CD =  0.02116   =>   CDf =  0.00708    CDp =  0.01407
 plradd ia,ip,cpol           32          83  0.24501994    

 Point added to stored polar  1
 Save file unspecified or not available
 Dump file unspecified or not available

.OPERva   c>  
.OPERva   c>  
.OPERva   c>   Calculating wake trajectory ...
 Calculating source influence matrix ...

 Solving BL system ...

 Side 1  free  transition at x/c =  0.7324   67
 Side 2  free  transition at x/c =  0.8389   67

   1   rms: 0.9772E-02   max: -.2821E-01   T at   67  2
       a =  1.850      CL =  0.5616
      Cm = -0.0869     CD =  0.02105   =>   CDf =  0.00708    CDp =  0.01397

 Side 1  free  transition at x/c =  0.7316   67
 Side 2  free  transition at x/c =  0.8402   67

   2   rms: 0.3483E-03   max: -.1919E-02   D at   68  2
       a =  1.850      CL =  0.5618
      Cm = -0.0870     CD =  0.02106   =>   CDf =  0.00709    CDp =  0.01397

 Side 1  free  transition at x/c =  0.7316   67
 Side 2  free  transition at x/c =  0.8402   67

   3   rms: 0.2720E-05   max: -.1498E-04   T at   67  1
       a =  1.850      CL =  0.5618
      Cm = -0.0870     CD =  0.02106   =>   CDf =  0.00709    CDp =  0.01397
 plradd ia,ip,cpol           33          83  0.24501994    

 Point added to stored polar  1
 Save file unspecified or not available
 Dump file unspecified or not available

.OPERva   c>  
.OPERva   c>  
.OPERva   c>   Calculating wake trajectory ...
 Calculating source influence matrix ...

 Solving BL system ...

 Side 1  free  transition at x/c =  0.7316   67
 Side 2  free  transition at x/c =  0.8402   67

   1   rms: 0.1029E-01   max: -.2676E-01   T at   67  2
       a =  1.900      CL =  0.5699
      Cm = -0.0873     CD =  0.02095   =>   CDf =  0.00709    CDp =  0.01386

 Side 1  free  transition at x/c =  0.7308   67
 Side 2  free  transition at x/c =  0.8416   67

   2   rms: 0.3311E-03   max: -.1639E-02   D at   68  1
       a =  1.900      CL =  0.5701
      Cm = -0.0873     CD =  0.02096   =>   CDf =  0.00711    CDp =  0.01385

 Side 1  free  transition at x/c =  0.7308   67
 Side 2  free  transition at x/c =  0.8416   67

   3   rms: 0.4426E-05   max: -.1869E-04   D at   80  1
       a =  1.900      CL =  0.5701
      Cm = -0.0874     CD =  0.02096   =>   CDf =  0.00711    CDp =  0.01385
 plradd ia,ip,cpol           34          83  0.24501994    

 Point added to stored polar  1
 Save file unspecified or not available
 Dump file unspecified or not available

.OPERva   c>  
.OPERva   c>  
.OPERva   c>   Calculating wake trajectory ...
 Calculating source influence matrix ...

 Solving BL system ...

 Side 1  free  transition at x/c =  0.7308   67
 Side 2  free  transition at x/c =  0.8416   67

   1   rms: 0.1048E-01   max: -.2613E-01   T at   67  2
       a =  1.950      CL =  0.5786
      Cm = -0.0878     CD =  0.02085   =>   CDf =  0.00711    CDp =  0.01375

 Side 1  free  transition at x/c =  0.7301   67
 Side 2  free  transition at x/c =  0.8430   67

   2   rms: 0.3218E-03   max: -.1603E-02   D at   68  1
       a =  1.950      CL =  0.5788
      Cm = -0.0878     CD =  0.02086   =>   CDf =  0.00712    CDp =  0.01374

 Side 1  free  transition at x/c =  0.7301   67
 Side 2  free  transition at x/c =  0.8430   67

   3   rms: 0.3723E-05   max: 0.2083E-04   D at   70  2
       a =  1.950      CL =  0.5788
      Cm = -0.0878     CD =  0.02086   =>   CDf =  0.00712    CDp =  0.01374
 plradd ia,ip,cpol           35          83  0.24501994    

 Point added to stored polar  1
 Save file unspecified or not available
 Dump file unspecified or not available

.OPERva   c>  
.OPERva   c>  
.OPERva   c>   Calculating wake trajectory ...
 Calculating source influence matrix ...

 Solving BL system ...

 Side 1  free  transition at x/c =  0.7301   67
 Side 2  free  transition at x/c =  0.8430   67

   1   rms: 0.1073E-01   max: -.2661E-01   T at   67  2
       a =  2.000      CL =  0.5875
      Cm = -0.0882     CD =  0.02076   =>   CDf =  0.00712    CDp =  0.01364

 Side 1  free  transition at x/c =  0.7295   66
 Side 2  free  transition at x/c =  0.8444   67

   2   rms: 0.9493E-01   max: 0.4273E+00   D at   78  1
       a =  2.000      CL =  0.5175
      Cm = -0.0778     CD =  0.02271   =>   CDf =  0.00713    CDp =  0.01558

 Side 1  free  transition at x/c =  0.7128   65
 Side 2  free  transition at x/c =  0.8466   67
 idif Ue xi dudx           1  0.19385314      2.35366821E-03   82.362137    
 Uenew xinew           2  4.14235406E-02  5.02943993E-04

   3   rms: 0.2019E+00   max: 0.1314E+01   T at   65  1   RLX: 0.584
       a =  2.000      CL =  0.4377
      Cm = -0.0682     CD =  0.02709   =>   CDf =  0.00711    CDp =  0.01998

 Side 1  free  transition at x/c =  0.6890   63
 Side 2  free  transition at x/c =  0.8482   68

   4   rms: 0.1078E+01   max: -.6356E+01   T at   63  1   RLX: 0.079
       a =  2.000      CL =  0.5044
      Cm = -0.0735     CD =  0.02782   =>   CDf =  0.00671    CDp =  0.02111

 Side 1  free  transition at x/c =  0.7105   65
 Side 2  free  transition at x/c =  0.8465   67

   5   rms: 0.9961E-01   max: -.4670E+00   D at   70  1
       a =  2.000      CL =  0.5794
      Cm = -0.0858     CD =  0.02078   =>   CDf =  0.00690    CDp =  0.01388

 Side 1  free  transition at x/c =  0.7330   67
 Side 2  free  transition at x/c =  0.8448   67

   6   rms: 0.2811E-01   max: 0.2289E+00   D at   67  1
       a =  2.000      CL =  0.5893
      Cm = -0.0885     CD =  0.02073   =>   CDf =  0.00712    CDp =  0.01360

 Side 1  free  transition at x/c =  0.7298   66
 Side 2  free  transition at x/c =  0.8443   67
 idif Ue xi dudx           1  0.17441158      2.12383270E-03   82.121147    
 Uenew xinew           2  2.24279817E-02  2.73108482E-04

   7   rms: 0.1867E+00   max: 0.8324E+00   D at   78  1   RLX: 0.958
       a =  2.000      CL =  0.4548
      Cm = -0.0683     CD =  0.02437   =>   CDf =  0.00725    CDp =  0.01713

 Side 1  free  transition at x/c =  0.7020   64
 Side 2  free  transition at x/c =  0.8488   68

   8   rms: 0.2484E+00   max: -.1112E+01   T at   64  1   RLX: 0.450
       a =  2.000      CL =  0.5433
      Cm = -0.0799     CD =  0.02381   =>   CDf =  0.00678    CDp =  0.01703

 Side 1  free  transition at x/c =  0.7244   66
 Side 2  free  transition at x/c =  0.8468   67

   9   rms: 0.4080E-01   max: -.2148E+00   D at   78  1
       a =  2.000      CL =  0.5757
      Cm = -0.0864     CD =  0.02096   =>   CDf =  0.00700    CDp =  0.01396

 Side 1  free  transition at x/c =  0.7265   66
 Side 2  free  transition at x/c =  0.8450   67

  10   rms: 0.4557E-02   max: 0.2356E-01   T at   66  1
       a =  2.000      CL =  0.5716
      Cm = -0.0859     CD =  0.02119   =>   CDf =  0.00708    CDp =  0.01411
 VISCAL:  Convergence failed

.OPERva   c>  
.OPERva   c>  
.OPERva   c>   Calculating wake trajectory ...
 Calculating source influence matrix ...

 Solving BL system ...

 Side 1  free  transition at x/c =  0.7254   66
 Side 2  free  transition at x/c =  0.8450   67

   1   rms: 0.8169E-02   max: 0.5767E-01   T at   66  1
       a =  2.050      CL =  0.5732
      Cm = -0.0853     CD =  0.02129   =>   CDf =  0.00707    CDp =  0.01421

 Side 1  free  transition at x/c =  0.7227   66
 Side 2  free  transition at x/c =  0.8467   67

   2   rms: 0.2493E-02   max: -.1164E-01   D at   69  1
       a =  2.050      CL =  0.5749
      Cm = -0.0856     CD =  0.02123   =>   CDf =  0.00706    CDp =  0.01416

 Side 1  free  transition at x/c =  0.7232   66
 Side 2  free  transition at x/c =  0.8467   67

   3   rms: 0.1174E-03   max: 0.3537E-03   D at   77  2
       a =  2.050      CL =  0.5750
      Cm = -0.0856     CD =  0.02123   =>   CDf =  0.00707    CDp =  0.01416

 Side 1  free  transition at x/c =  0.7232   66
 Side 2  free  transition at x/c =  0.8467   67

   4   rms: 0.3673E-05   max: 0.1686E-04   D at   77  2
       a =  2.050      CL =  0.5750
      Cm = -0.0856     CD =  0.02123   =>   CDf =  0.00707    CDp =  0.01416
 plradd ia,ip,cpol           36          83  0.19919689    

 Point added to stored polar  1
 Save file unspecified or not available
 Dump file unspecified or not available

.OPERva   c>  
.OPERva   c>  
.OPERva   c>   Calculating wake trajectory ...
 Calculating source influence matrix ...

 Solving BL system ...

 Side 1  free  transition at x/c =  0.7232   66
 Side 2  free  transition at x/c =  0.8467   67

   1   rms: 0.8504E-02   max: -.3102E-01   T at   67  2
       a =  2.100      CL =  0.5798
      Cm = -0.0855     CD =  0.02124   =>   CDf =  0.00707    CDp =  0.01417

 Side 1  free  transition at x/c =  0.7212   66
 Side 2  free  transition at x/c =  0.8483   67

   2   rms: 0.1425E-02   max: -.6712E-02   D at   69  1
       a =  2.100      CL =  0.5808
      Cm = -0.0857     CD =  0.02121   =>   CDf =  0.00707    CDp =  0.01414

 Side 1  free  transition at x/c =  0.7214   66
 Side 2  free  transition at x/c =  0.8484   67

   3   rms: 0.4341E-04   max: 0.1423E-03   D at   70  2
       a =  2.100      CL =  0.5808
      Cm = -0.0857     CD =  0.02121   =>   CDf =  0.00707    CDp =  0.01414
 plradd ia,ip,cpol           37          83  0.19919689    

 Point added to stored polar  1
 Save file unspecified or not available
 Dump file unspecified or not available

.OPERva   c>  
.OPERva   c>  
.OPERva   c>   Calculating wake trajectory ...
 Calculating source influence matrix ...

 Solving BL system ...

 Side 1  free  transition at x/c =  0.7214   66
 Side 2  free  transition at x/c =  0.8484   67

   1   rms: 0.9492E-02   max: -.3109E-01   T at   67  2
       a =  2.150      CL =  0.5874
      Cm = -0.0859     CD =  0.02118   =>   CDf =  0.00707    CDp =  0.01411

 Side 1  free  transition at x/c =  0.7199   66
 Side 2  free  transition at x/c =  0.8499   67

   2   rms: 0.7926E-03   max: -.3677E-02   D at   68  1
       a =  2.150      CL =  0.5879
      Cm = -0.0860     CD =  0.02117   =>   CDf =  0.00708    CDp =  0.01409

 Side 1  free  transition at x/c =  0.7200   66
 Side 2  free  transition at x/c =  0.8500   67

   3   rms: 0.1903E-04   max: 0.7455E-04   D at   70  2
       a =  2.150      CL =  0.5880
      Cm = -0.0860     CD =  0.02117   =>   CDf =  0.00708    CDp =  0.01409
 plradd ia,ip,cpol           38          83  0.19919689    

 Point added to stored polar  1
 Save file unspecified or not available
 Dump file unspecified or not available

.OPERva   c>  
.OPERva   c>  
.OPERva   c>   Calculating wake trajectory ...
 Calculating source influence matrix ...

 Solving BL system ...

 Side 1  free  transition at x/c =  0.7200   66
 Side 2  free  transition at x/c =  0.8500   67

   1   rms: 0.1045E-01   max: -.3372E-01   T at   67  2
       a =  2.200      CL =  0.5957
      Cm = -0.0865     CD =  0.02112   =>   CDf =  0.00708    CDp =  0.01403

 Side 1  free  transition at x/c =  0.7187   66
 Side 2  free  transition at x/c =  0.8516   68

   2   rms: 0.2580E-02   max: -.4594E-01   D at   67  2
       a =  2.200      CL =  0.5947
      Cm = -0.0862     CD =  0.02109   =>   CDf =  0.00709    CDp =  0.01400

 Side 1  free  transition at x/c =  0.7188   66
 Side 2  free  transition at x/c =  0.8513   68

   3   rms: 0.1865E-03   max: 0.2081E-02   D at   70  2
       a =  2.200      CL =  0.5946
      Cm = -0.0861     CD =  0.02110   =>   CDf =  0.00708    CDp =  0.01401

 Side 1  free  transition at x/c =  0.7188   66
 Side 2  free  transition at x/c =  0.8513   68

   4   rms: 0.2183E-05   max: 0.1508E-04   D at    4  2
       a =  2.200      CL =  0.5946
      Cm = -0.0861     CD =  0.02110   =>   CDf =  0.00708    CDp =  0.01401
 plradd ia,ip,cpol           39          83  0.19919689    

 Point added to stored polar  1
 Save file unspecified or not available
 Dump file unspecified or not available

.OPERva   c>  
.OPERva   c>  
.OPERva   c>   Calculating wake trajectory ...
 Calculating source influence matrix ...

 Solving BL system ...

[...]
 Calculating source influence matrix ...

 Solving BL system ...

 Side 1  free  transition at x/c =  0.5342   62
 Side 2 forced transition at x/c =  1.0000   71

   1   rms: 0.1155E-01   max: 0.5107E-01   T at   62  1
       a =  7.100      CL =  1.1872
      Cm = -0.0967     CD =  0.02040   =>   CDf =  0.00656    CDp =  0.01384

 Side 1  free  transition at x/c =  0.5322   62
 Side 2 forced transition at x/c =  1.0000   70

   2   rms: 0.4743E-02   max: -.5788E-01   D at    2  1
       a =  7.100      CL =  1.1845
      Cm = -0.0963     CD =  0.02047   =>   CDf =  0.00688    CDp =  0.01359

 Side 1  free  transition at x/c =  0.5318   62
 Side 2 forced transition at x/c =  1.0000   70

   3   rms: 0.1445E-02   max: -.1929E-01   D at    4  1
       a =  7.100      CL =  1.1845
      Cm = -0.0963     CD =  0.02047   =>   CDf =  0.00687    CDp =  0.01361

 Side 1  free  transition at x/c =  0.5318   62
 Side 2 forced transition at x/c =  1.0000   70

   4   rms: 0.5172E-05   max: 0.5630E-04   D at    6  1
       a =  7.100      CL =  1.1845
      Cm = -0.0963     CD =  0.02047   =>   CDf =  0.00687    CDp =  0.01361
 plradd ia,ip,cpol          135          91  1.57356616E-02

 Point added to stored polar  1
 Save file unspecified or not available
 Dump file unspecified or not available

.OPERva   c>  
.OPERva   c>  
.OPERva   c>   Calculating wake trajectory ...
 Calculating source influence matrix ...

 Solving BL system ...

 Side 1  free  transition at x/c =  0.5318   62
 Side 2 forced transition at x/c =  1.0000   70

   1   rms: 0.9431E-02   max: -.6048E-01   C at   70  2
       a =  7.150      CL =  1.1845
      Cm = -0.0955     CD =  0.02063   =>   CDf =  0.00687    CDp =  0.01376

 Side 1  free  transition at x/c =  0.5284   62
 Side 2 forced transition at x/c =  1.0000   70

   2   rms: 0.1954E-02   max: -.1381E-01   D at   64  1
       a =  7.150      CL =  1.1857
      Cm = -0.0957     CD =  0.02058   =>   CDf =  0.00682    CDp =  0.01376

 Side 1  free  transition at x/c =  0.5286   62
 Side 2 forced transition at x/c =  1.0000   70

   3   rms: 0.3735E-04   max: 0.2030E-03   C at   70  2
       a =  7.150      CL =  1.1858
      Cm = -0.0957     CD =  0.02058   =>   CDf =  0.00682    CDp =  0.01377
 plradd ia,ip,cpol          136          91  1.57356616E-02

 Point added to stored polar  1
 Save file unspecified or not available
 Dump file unspecified or not available

.OPERva   c>  
.OPERva   c>  
.OPERva   c>   Calculating wake trajectory ...
 Calculating source influence matrix ...

 Solving BL system ...

 Side 1  free  transition at x/c =  0.5286   62
 Side 2 forced transition at x/c =  1.0000   70

   1   rms: 0.8189E-02   max: 0.4820E-01   T at   62  1
       a =  7.200      CL =  1.1881
      Cm = -0.0952     CD =  0.02068   =>   CDf =  0.00682    CDp =  0.01386

 Side 1  free  transition at x/c =  0.5253   62
 Side 2 forced transition at x/c =  1.0000   70

   2   rms: 0.1674E-02   max: -.1179E-01   D at   63  1
       a =  7.200      CL =  1.1891
      Cm = -0.0953     CD =  0.02064   =>   CDf =  0.00680    CDp =  0.01384

 Side 1  free  transition at x/c =  0.5255   62
 Side 2 forced transition at x/c =  1.0000   70

   3   rms: 0.3236E-04   max: 0.1707E-03   C at   70  2
       a =  7.200      CL =  1.1891
      Cm = -0.0953     CD =  0.02064   =>   CDf =  0.00680    CDp =  0.01384
 plradd ia,ip,cpol          137          91  1.57356616E-02

 Point added to stored polar  1
 Save file unspecified or not available
 Dump file unspecified or not available

.OPERva   c>  
.OPERva   c>  
.OPERva   c>   Calculating wake trajectory ...
 Calculating source influence matrix ...

 Solving BL system ...

 Side 1  free  transition at x/c =  0.5255   62
 Side 2 forced transition at x/c =  1.0000   70

   1   rms: 0.8151E-02   max: 0.4410E-01   T at   62  1
       a =  7.250      CL =  1.1934
      Cm = -0.0951     CD =  0.02068   =>   CDf =  0.00680    CDp =  0.01388

 Side 1  free  transition at x/c =  0.5225   62
 Side 2 forced transition at x/c =  1.0000   70

   2   rms: 0.1392E-02   max: -.8417E-02   D at   63  1
       a =  7.250      CL =  1.1943
      Cm = -0.0953     CD =  0.02065   =>   CDf =  0.00681    CDp =  0.01384

 Side 1  free  transition at x/c =  0.5226   62
 Side 2 forced transition at x/c =  1.0000   70

   3   rms: 0.2209E-04   max: 0.1019E-03   C at   70  2
       a =  7.250      CL =  1.1943
      Cm = -0.0953     CD =  0.02065   =>   CDf =  0.00680    CDp =  0.01385
 plradd ia,ip,cpol          138          91  1.57356616E-02

 Point added to stored polar  1
 Save file unspecified or not available
 Dump file unspecified or not available

.OPERva   c>  
.OPERva   c>  
.OPERva   c>   Calculating wake trajectory ...
 Calculating source influence matrix ...

 Solving BL system ...

 Side 1  free  transition at x/c =  0.5226   62
 Side 2 forced transition at x/c =  1.0000   70

   1   rms: 0.9562E-02   max: 0.4730E-01   T at   62  1
       a =  7.300      CL =  1.2001
      Cm = -0.0953     CD =  0.02064   =>   CDf =  0.00680    CDp =  0.01384

 Side 1  free  transition at x/c =  0.5197   62
 Side 2 forced transition at x/c =  1.0000   70

   2   rms: 0.1626E-02   max: -.1127E-01   D at   62  1
       a =  7.300      CL =  1.2009
      Cm = -0.0954     CD =  0.02062   =>   CDf =  0.00684    CDp =  0.01378

 Side 1  free  transition at x/c =  0.5199   62
 Side 2 forced transition at x/c =  1.0000   70

   3   rms: 0.2572E-04   max: 0.1102E-03   C at   70  2
       a =  7.300      CL =  1.2009
      Cm = -0.0954     CD =  0.02062   =>   CDf =  0.00683    CDp =  0.01379
 plradd ia,ip,cpol          139          91  1.57356616E-02

 Point added to stored polar  1
 Save file unspecified or not available
 Dump file unspecified or not available

.OPERva   c>  
.OPERva   c>  
.OPERva   c>   Calculating wake trajectory ...
 Calculating source influence matrix ...

 Solving BL system ...

 Side 1  free  transition at x/c =  0.5199   62
 Side 2 forced transition at x/c =  1.0000   70

   1   rms: 0.1062E-01   max: 0.4939E-01   T at   62  1
       a =  7.350      CL =  1.2080
      Cm = -0.0956     CD =  0.02059   =>   CDf =  0.00683    CDp =  0.01376

 Side 1  free  transition at x/c =  0.5173   62
 Side 2 forced transition at x/c =  1.0000   70

   2   rms: 0.1457E-02   max: -.1195E-01   D at   62  1
       a =  7.350      CL =  1.2088
      Cm = -0.0957     CD =  0.02058   =>   CDf =  0.00688    CDp =  0.01370

 Side 1  free  transition at x/c =  0.5174   62
 Side 2 forced transition at x/c =  1.0000   70

   3   rms: 0.2578E-04   max: 0.1307E-03   C at   70  2
       a =  7.350      CL =  1.2088
      Cm = -0.0957     CD =  0.02058   =>   CDf =  0.00688    CDp =  0.01371
 plradd ia,ip,cpol          140          91  1.57356616E-02

 Point added to stored polar  1
 Save file unspecified or not available
 Dump file unspecified or not available

.OPERva   c>  
.OPERva   c>  
.OPERva   c>   Calculating wake trajectory ...
 Calculating source influence matrix ...

 Solving BL system ...

 Side 1  free  transition at x/c =  0.5174   62
 Side 2 forced transition at x/c =  1.0000   70

   1   rms: 0.1204E-01   max: 0.5801E-01   T at   62  1
       a =  7.400      CL =  1.2171
      Cm = -0.0961     CD =  0.02054   =>   CDf =  0.00688    CDp =  0.01366

 Side 1  free  transition at x/c =  0.5151   61
 Side 2 forced transition at x/c =  1.0000   70

   2   rms: 0.6429E-02   max: 0.4247E-01   D at   62  1
       a =  7.400      CL =  1.2121
      Cm = -0.0954     CD =  0.02066   =>   CDf =  0.00688    CDp =  0.01378

 Side 1  free  transition at x/c =  0.5145   61
 Side 2 forced transition at x/c =  1.0000   70

   3   rms: 0.1136E-03   max: 0.1395E-02   D at   62  1
       a =  7.400      CL =  1.2121
      Cm = -0.0954     CD =  0.02065   =>   CDf =  0.00686    CDp =  0.01379

 Side 1  free  transition at x/c =  0.5145   61
 Side 2 forced transition at x/c =  1.0000   70

   4   rms: 0.3284E-05   max: 0.1151E-04   D at   88  1
       a =  7.400      CL =  1.2121
      Cm = -0.0954     CD =  0.02065   =>   CDf =  0.00686    CDp =  0.01379
 plradd ia,ip,cpol          141          91  1.57356616E-02

 Point added to stored polar  1
 Save file unspecified or not available
 Dump file unspecified or not available

.OPERva   c>  
.OPERva   c>  
.OPERva   c>   Calculating wake trajectory ...
 Calculating source influence matrix ...

 Solving BL system ...

 Side 1  free  transition at x/c =  0.5145   61
 Side 2 forced transition at x/c =  1.0000   70

   1   rms: 0.8939E-02   max: 0.5047E-01   T at   61  1
       a =  7.450      CL =  1.2128
      Cm = -0.0946     CD =  0.02078   =>   CDf =  0.00686    CDp =  0.01392

 Side 1  free  transition at x/c =  0.5110   61
 Side 2 forced transition at x/c =  1.0000   70

   2   rms: 0.1786E-02   max: -.1277E-01   D at   62  1
       a =  7.450      CL =  1.2139
      Cm = -0.0948     CD =  0.02074   =>   CDf =  0.00682    CDp =  0.01392

 Side 1  free  transition at x/c =  0.5112   61
 Side 2 forced transition at x/c =  1.0000   70

   3   rms: 0.3304E-04   max: 0.1806E-03   C at   70  2
       a =  7.450      CL =  1.2139
      Cm = -0.0948     CD =  0.02074   =>   CDf =  0.00682    CDp =  0.01392
 plradd ia,ip,cpol          142          91  1.28080836E-02

 Point added to stored polar  1
 Save file unspecified or not available
 Dump file unspecified or not available

.OPERva   c>  
.OPERva   c>  
.OPERva   c>   Calculating wake trajectory ...
 Calculating source influence matrix ...

 Solving BL system ...

 Side 1  free  transition at x/c =  0.5112   61
 Side 2 forced transition at x/c =  1.0000   70

   1   rms: 0.7784E-02   max: 0.4632E-01   T at   61  1
       a =  7.500      CL =  1.2167
      Cm = -0.0943     CD =  0.02081   =>   CDf =  0.00682    CDp =  0.01399

 Side 1  free  transition at x/c =  0.5078   61
 Side 2 forced transition at x/c =  1.0000   70

   2   rms: 0.1652E-02   max: -.1049E-01   D at   62  1
       a =  7.500      CL =  1.2176
      Cm = -0.0945     CD =  0.02078   =>   CDf =  0.00682    CDp =  0.01396

 Side 1  free  transition at x/c =  0.5080   61
 Side 2 forced transition at x/c =  1.0000   70

   3   rms: 0.2515E-04   max: 0.1219E-03   C at   70  2
       a =  7.500      CL =  1.2177
      Cm = -0.0945     CD =  0.02078   =>   CDf =  0.00681    CDp =  0.01397
 plradd ia,ip,cpol          143          91  1.28080836E-02

 Point added to stored polar  1
 Save file unspecified or not available
 Dump file unspecified or not available

.OPERva   c>  
.OPERva   c>  
.OPERva   c>   Calculating wake trajectory ...
 Calculating source influence matrix ...

 Solving BL system ...

 Side 1  free  transition at x/c =  0.5080   61
 Side 2 forced transition at x/c =  1.0000   70

   1   rms: 0.8716E-02   max: 0.4633E-01   T at   61  1
       a =  7.550      CL =  1.2221
      Cm = -0.0943     CD =  0.02079   =>   CDf =  0.00681    CDp =  0.01399

 Side 1  free  transition at x/c =  0.5048   61
 Side 2 forced transition at x/c =  1.0000   70

   2   rms: 0.1651E-02   max: -.1141E-01   D at   62  1
       a =  7.550      CL =  1.2229
      Cm = -0.0944     CD =  0.02077   =>   CDf =  0.00683    CDp =  0.01394

 Side 1  free  transition at x/c =  0.5049   61
 Side 2 forced transition at x/c =  1.0000   70

   3   rms: 0.2738E-04   max: 0.1418E-03   C at   70  2
       a =  7.550      CL =  1.2230
      Cm = -0.0944     CD =  0.02077   =>   CDf =  0.00682    CDp =  0.01395
 plradd ia,ip,cpol          144          91  1.28080836E-02

 Point added to stored polar  1
 Save file unspecified or not available
 Dump file unspecified or not available

.OPERva   c>  
.OPERva   c>  
.OPERva   c>   Calculating wake trajectory ...
 Calculating source influence matrix ...

 Solving BL system ...

 Side 1  free  transition at x/c =  0.5049   61
 Side 2 forced transition at x/c =  1.0000   70

   1   rms: 0.1022E-01   max: 0.4865E-01   T at   61  1
       a =  7.600      CL =  1.2288
      Cm = -0.0944     CD =  0.02076   =>   CDf =  0.00682    CDp =  0.01393

 Side 1  free  transition at x/c =  0.5021   61
 Side 2 forced transition at x/c =  1.0000   70

   2   rms: 0.1578E-02   max: -.1205E-01   D at   61  1
       a =  7.600      CL =  1.2296
      Cm = -0.0945     CD =  0.02074   =>   CDf =  0.00687    CDp =  0.01387

 Side 1  free  transition at x/c =  0.5022   61
 Side 2 forced transition at x/c =  1.0000   70

   3   rms: 0.2769E-04   max: 0.1470E-03   C at   70  2
       a =  7.600      CL =  1.2296
      Cm = -0.0945     CD =  0.02074   =>   CDf =  0.00686    CDp =  0.01388
 plradd ia,ip,cpol          145          91  1.28080836E-02

 Point added to stored polar  1
 Save file unspecified or not available
 Dump file unspecified or not available

.OPERva   c>  
.OPERva   c>  
.OPERva   c>   Calculating wake trajectory ...
 Calculating source influence matrix ...

 Solving BL system ...

 Side 1  free  transition at x/c =  0.5022   61
 Side 2 forced transition at x/c =  1.0000   70

   1   rms: 0.1102E-01   max: 0.5647E-01   T at   61  1
       a =  7.650      CL =  1.2368
      Cm = -0.0947     CD =  0.02070   =>   CDf =  0.00686    CDp =  0.01384

 Side 1  free  transition at x/c =  0.4996   60
 Side 2 forced transition at x/c =  1.0000   70

   2   rms: 0.1923E-02   max: 0.1347E-01   D at   62  1
       a =  7.650      CL =  1.2354
      Cm = -0.0945     CD =  0.02076   =>   CDf =  0.00690    CDp =  0.01386

 Side 1  free  transition at x/c =  0.4994   60
 Side 2 forced transition at x/c =  1.0000   70

   3   rms: 0.1620E-04   max: 0.1079E-03   D at   61  1
       a =  7.650      CL =  1.2354
      Cm = -0.0945     CD =  0.02075   =>   CDf =  0.00689    CDp =  0.01387
 plradd ia,ip,cpol          146          91  1.28080836E-02

 Point added to stored polar  1
 Save file unspecified or not available
 Dump file unspecified or not available

.OPERva   c>  
.OPERva   c>  
.OPERva   c>   Calculating wake trajectory ...
 Calculating source influence matrix ...

 Solving BL system ...

 Side 1  free  transition at x/c =  0.4994   60
 Side 2 forced transition at x/c =  1.0000   70

   1   rms: 0.9029E-02   max: 0.5040E-01   T at   60  1
       a =  7.700      CL =  1.2353
      Cm = -0.0937     CD =  0.02089   =>   CDf =  0.00689    CDp =  0.01400

 Side 1  free  transition at x/c =  0.4958   60
 Side 2 forced transition at x/c =  1.0000   70

   2   rms: 0.1814E-02   max: -.1223E-01   D at   61  1
       a =  7.700      CL =  1.2364
      Cm = -0.0938     CD =  0.02085   =>   CDf =  0.00684    CDp =  0.01401

 Side 1  free  transition at x/c =  0.4960   60
 Side 2 forced transition at x/c =  1.0000   70

   3   rms: 0.3717E-04   max: 0.2361E-03   C at   70  2
       a =  7.700      CL =  1.2364
      Cm = -0.0938     CD =  0.02086   =>   CDf =  0.00684    CDp =  0.01402
 plradd ia,ip,cpol          147          91  1.28080836E-02

 Point added to stored polar  1
 Save file unspecified or not available
 Dump file unspecified or not available

.OPERva   c>  
.OPERva   c>  
.OPERva   c>   Calculating wake trajectory ...
 Calculating source influence matrix ...

 Solving BL system ...

 Side 1  free  transition at x/c =  0.4960   60
 Side 2 forced transition at x/c =  1.0000   70

   1   rms: 0.7596E-02   max: 0.4478E-01   T at   60  1
       a =  7.750      CL =  1.2386
      Cm = -0.0933     CD =  0.02094   =>   CDf =  0.00684    CDp =  0.01410

 Side 1  free  transition at x/c =  0.4925   60
 Side 2 forced transition at x/c =  1.0000   70

   2   rms: 0.1603E-02   max: -.1108E-01   D at   61  1
       a =  7.750      CL =  1.2394
      Cm = -0.0934     CD =  0.02091   =>   CDf =  0.00683    CDp =  0.01409

 Side 1  free  transition at x/c =  0.4927   60
 Side 2 forced transition at x/c =  1.0000   70

   3   rms: 0.3034E-04   max: 0.1855E-03   C at   70  2
       a =  7.750      CL =  1.2394
      Cm = -0.0934     CD =  0.02091   =>   CDf =  0.00682    CDp =  0.01409
 plradd ia,ip,cpol          148          91  1.28080836E-02

 Point added to stored polar  1
 Save file unspecified or not available
 Dump file unspecified or not available

.OPERva   c>  
.OPERva   c>  
.OPERva   c>   Calculating wake trajectory ...
 Calculating source influence matrix ...

 Solving BL system ...

 Side 1  free  transition at x/c =  0.4927   60
 Side 2 forced transition at x/c =  1.0000   70

   1   rms: 0.8127E-02   max: 0.4456E-01   T at   60  1
       a =  7.800      CL =  1.2431
      Cm = -0.0931     CD =  0.02095   =>   CDf =  0.00682    CDp =  0.01413

 Side 1  free  transition at x/c =  0.4894   60
 Side 2 forced transition at x/c =  1.0000   70

   2   rms: 0.1528E-02   max: -.9884E-02   D at   61  1
       a =  7.800      CL =  1.2439
      Cm = -0.0932     CD =  0.02093   =>   CDf =  0.00683    CDp =  0.01410

 Side 1  free  transition at x/c =  0.4895   60
 Side 2 forced transition at x/c =  1.0000   70

   3   rms: 0.2998E-04   max: 0.1967E-03   C at   70  2
       a =  7.800      CL =  1.2439
      Cm = -0.0932     CD =  0.02093   =>   CDf =  0.00682    CDp =  0.01411
 plradd ia,ip,cpol          149          91  1.28080836E-02

 Point added to stored polar  1
 Save file unspecified or not available
 Dump file unspecified or not available

.OPERva   c>  
.OPERva   c>  
.OPERva   c>   Calculating wake trajectory ...
 Calculating source influence matrix ...

 Solving BL system ...

 Side 1  free  transition at x/c =  0.4895   60
 Side 2 forced transition at x/c =  1.0000   70

   1   rms: 0.9533E-02   max: -.5458E-01   D at    3  2
       a =  7.850      CL =  1.2489
      Cm = -0.0931     CD =  0.02094   =>   CDf =  0.00683    CDp =  0.01411

 Side 1  free  transition at x/c =  0.4865   60
 Side 2 forced transition at x/c =  1.0000   70

   2   rms: 0.1663E-02   max: -.1172E-01   D at   60  1
       a =  7.850      CL =  1.2497
      Cm = -0.0932     CD =  0.02092   =>   CDf =  0.00687    CDp =  0.01406

 Side 1  free  transition at x/c =  0.4866   60
 Side 2 forced transition at x/c =  1.0000   70

   3   rms: 0.3504E-04   max: 0.2149E-03   C at   70  2
       a =  7.850      CL =  1.2497
      Cm = -0.0932     CD =  0.02092   =>   CDf =  0.00686    CDp =  0.01407
 plradd ia,ip,cpol          150          91  1.28080836E-02

 Point added to stored polar  1
 Save file unspecified or not available
 Dump file unspecified or not available

.OPERva   c>  
.OPERva   c>  
.OPERva   c>   Calculating wake trajectory ...
 Calculating source influence matrix ...

 Solving BL system ...

 Side 1  free  transition at x/c =  0.4866   60
 Side 2 forced transition at x/c =  1.0000   70

   1   rms: 0.1031E-01   max: 0.5233E-01   T at   60  1
       a =  7.900      CL =  1.2560
      Cm = -0.0933     CD =  0.02091   =>   CDf =  0.00651    CDp =  0.01440

 Side 1  free  transition at x/c =  0.4839   60
 Side 2 forced transition at x/c =  1.0000   69

   2   rms: 0.1735E-02   max: -.1661E-01   D at    2  1
       a =  7.900      CL =  1.2567
      Cm = -0.0934     CD =  0.02091   =>   CDf =  0.00690    CDp =  0.01401

 Side 1  free  transition at x/c =  0.4839   60
 Side 2 forced transition at x/c =  1.0000   69

   3   rms: 0.1255E-02   max: -.1700E-01   D at    4  1
       a =  7.900      CL =  1.2568
      Cm = -0.0934     CD =  0.02091   =>   CDf =  0.00690    CDp =  0.01402

 Side 1  free  transition at x/c =  0.4839   60
 Side 2 forced transition at x/c =  1.0000   69

   4   rms: 0.4465E-05   max: 0.4781E-04   D at    6  1
       a =  7.900      CL =  1.2568
      Cm = -0.0934     CD =  0.02091   =>   CDf =  0.00690    CDp =  0.01402
 plradd ia,ip,cpol          151          92  1.28080836E-02

 Point added to stored polar  1
 Save file unspecified or not available
 Dump file unspecified or not available

.OPERva   c>  
.OPERva   c>  
.OPERva   c>   Calculating wake trajectory ...
 Calculating source influence matrix ...

 Solving BL system ...

 Side 1  free  transition at x/c =  0.4839   60
 Side 2 forced transition at x/c =  1.0000   69

