
 ===================================================
  XFOIL Version 6.99
  Copyright (C) 2000   Mark Drela, Harold Youngren

  This software comes with ABSOLUTELY NO WARRANTY,
    subject to the GNU General Public License.

  Caveat computor
 ===================================================

 File  xfoil.def  not found

   QUIT    Exit program

  .OPER    Direct operating point(s)
  .MDES    Complex mapping design routine
  .QDES    Surface speed design routine
  .GDES    Geometry design routine

   SAVE f  Write airfoil to labeled coordinate file
   PSAV f  Write airfoil to plain coordinate file
   ISAV f  Write airfoil to ISES coordinate file
   MSAV f  Write airfoil to MSES coordinate file
   REVE    Reverse written-airfoil node ordering

   LOAD f  Read buffer airfoil from coordinate file
   NACA i  Set NACA 4,5-digit airfoil and buffer airfoil
   INTE    Set buffer airfoil by interpolating two airfoils
   NORM    Buffer airfoil normalization toggle
   XYCM rr Change CM reference location, currently  0.25000 0.00000

   BEND    Display structural properties of current airfoil

   PCOP    Set current-airfoil panel nodes directly from buffer airfoil points
   PANE    Set current-airfoil panel nodes ( 160 ) based on curvature
  .PPAR    Show/change paneling

  .PLOP    Plotting options

   WDEF f  Write  current-settings file
   RDEF f  Reread current-settings file
   NAME s  Specify new airfoil name
   NINC    Increment name version number

   Z       Zoom    | (available in all menus)
   U       Unzoom  | 

 XFOIL   c>  
 Labeled airfoil file.  Name:  SG6040                                          

 Number of input coordinate points:  81
 Counterclockwise ordering
 Max thickness =     0.160016  at x =   0.353
 Max camber    =     0.025156  at x =   0.582

  LE  x,y  =   0.00009  -0.00040  |   Chord =   0.99991
  TE  x,y  =   1.00000   0.00000  |

 Current airfoil nodes set from buffer airfoil nodes (  81 )

 XFOIL   c>  
  F  disk file
  C  current airfoil  SG6040                                          

  Select source of airfoil "0" ( F C ):  
Enter filename   s>  
  Select source of airfoil "1" ( F C ):  
Enter filename   s>  
 airfoil "0":  SG6040                                          
 airfoil "1":  WORTMANN FX 63-137 AIRFOIL                      

Specify interpolating fraction  0...1   r>   Max thickness =     0.155421  at x =   0.352
 Max camber    =     0.031211  at x =   0.568

Enter new airfoil name   s>  
 Result has been placed in buffer airfoil
 Execute PCOP or PANE to set new current airfoil

 XFOIL   c>  
 Sharp trailing edge

 Paneling parameters used...
   Number of panel nodes       160
   Panel bunching parameter    1.000
   TE/LE panel density ratio   0.150
   Refined-area/LE panel density ratio    0.200
   Top    side refined area x/c limits  1.000 1.000
   Bottom side refined area x/c limits  1.000 1.000

 XFOIL   c>  
 XFOIL   c>  
 XFOIL   c>  
.OPERi   c>  
.OPERi   c>  
 Sonic Cp =   -550.04      Sonic Q/Qinf =    26.096


.OPERi   c>  
 M  =    0.0350
 Re =     60000

.OPERv   c>  
 Polar  1 newly created for accumulation
 Airfoil archived with polar: BlendedAirfoil                                  

Enter  polar save filename  OR  <return> for no file   s>  
 Polar save file will NOT be written

Enter  polar dump filename  OR  <return> for no file   s>  
 Polar dump file will NOT be written

 Polar accumulation enabled

.OPERva   c>   Calculating unit vorticity distributions ...
 Calculating wake trajectory ...
 Calculating source influence matrix ...

 Solving BL system ...

 Initializing BL ...
    side            1  ...
 MRCHUE: Inverse mode at  53     Hk =   3.809
 MRCHUE: Inverse mode at  54     Hk =   4.067
 MRCHUE: Inverse mode at  55     Hk =   4.318
 MRCHUE: Inverse mode at  56     Hk =   4.564
 MRCHUE: Inverse mode at  57     Hk =   4.805
 MRCHUE: Inverse mode at  58     Hk =   5.043
 MRCHUE: Inverse mode at  59     Hk =   5.277
 MRCHUE: Inverse mode at  60     Hk =   5.507
 MRCHUE: Inverse mode at  61     Hk =   5.734
 MRCHUE: Inverse mode at  62     Hk =   5.958
 MRCHUE: Inverse mode at  63     Hk =   6.180
 MRCHUE: Inverse mode at  64     Hk =   6.400
 MRCHUE: Inverse mode at  65     Hk =   6.617
 MRCHUE: Inverse mode at  66     Hk =   6.833
 MRCHUE: Inverse mode at  67     Hk =   7.047
 MRCHUE: Inverse mode at  68     Hk =   7.261
 MRCHUE: Inverse mode at  69     Hk =   7.473
 MRCHUE: Inverse mode at  70     Hk =   7.683
 MRCHUE: Inverse mode at  71     Hk =   7.891
 MRCHUE: Inverse mode at  72     Hk =   8.097
 MRCHUE: Inverse mode at  73     Hk =   8.302
 MRCHUE: Inverse mode at  74     Hk =   8.503
 MRCHUE: Inverse mode at  75     Hk =   8.702
 MRCHUE: Inverse mode at  76     Hk =   8.896
 MRCHUE: Inverse mode at  77     Hk =   9.083
 MRCHUE: Inverse mode at  78     Hk =   9.262
 MRCHUE: Inverse mode at  79     Hk =   9.433
 MRCHUE: Inverse mode at  80     Hk =   9.593
 MRCHUE: Inverse mode at  81     Hk =   9.740
 MRCHUE: Inverse mode at  82     Hk =   9.308
 MRCHUE: Inverse mode at  83     Hk =   8.978
    side            2  ...
 MRCHUE: Inverse mode at  48     Hk =   3.800
 MRCHUE: Inverse mode at  49     Hk =   4.039
 MRCHUE: Inverse mode at  50     Hk =   4.275
 MRCHUE: Inverse mode at  51     Hk =   4.508
 MRCHUE: Inverse mode at  52     Hk =   4.737
 MRCHUE: Inverse mode at  53     Hk =   4.963
 MRCHUE: Inverse mode at  54     Hk =   5.186
 MRCHUE: Convergence failed at  55  side 2    Res =  0.1324E+01
 MRCHUE: Inverse mode at  56     Hk =   5.403
 MRCHUE: Inverse mode at  57     Hk =   5.615
 MRCHUE: Inverse mode at  58     Hk =   5.822
 MRCHUE: Inverse mode at  59     Hk =   6.026
 MRCHUE: Inverse mode at  60     Hk =   6.225
 MRCHUE: Inverse mode at  61     Hk =   6.421
 MRCHUE: Inverse mode at  62     Hk =   6.613
 MRCHUE: Inverse mode at  63     Hk =   6.802
 MRCHUE: Inverse mode at  64     Hk =   6.988
 MRCHUE: Inverse mode at  65     Hk =   7.171
 MRCHUE: Inverse mode at  66     Hk =   7.350
 MRCHUE: Inverse mode at  67     Hk =   7.527
 MRCHUE: Inverse mode at  68     Hk =   7.701
 MRCHUE: Inverse mode at  69     Hk =   7.872
 MRCHUE: Inverse mode at  70     Hk =   8.040
 MRCHUE: Inverse mode at  71     Hk =   8.204
 MRCHUE: Inverse mode at  72     Hk =   8.365
 MRCHUE: Inverse mode at  73     Hk =   8.520
 MRCHUE: Inverse mode at  74     Hk =   8.670
 MRCHUE: Inverse mode at  75     Hk =   8.811
 MRCHUE: Inverse mode at  76     Hk =   8.943
 MRCHUE: Inverse mode at  77     Hk =   9.062
 MRCHUE: Inverse mode at  78     Hk =   9.170
 MRCHUE: Inverse mode at  79     Hk =   9.235
 MRCHUE: Inverse mode at  81     Hk =   5.754
 MRCHUE: Inverse mode at  82     Hk =   4.444
 MRCHUE: Inverse mode at  83     Hk =   3.754
 MRCHUE: Inverse mode at  84     Hk =   3.325
 MRCHUE: Inverse mode at  85     Hk =   3.028

 Side 1  free  transition at x/c =  0.9857   82
 Side 2 forced transition at x/c =  1.0000   79

   1   rms: 0.6145E+00   max: 0.4518E+01   D at   86  2   RLX: 0.332
       a =  0.000      CL =  0.6237
      Cm = -0.1519     CD =  0.01141   =>   CDf =  0.00994    CDp =  0.00147

 Side 1  free  transition at x/c =  0.9497   79
 Side 2 forced transition at x/c =  1.0000   79
 idif Ue xi dudx           1  0.29118383      3.61049175E-03   80.649353    
 Uenew xinew           2  0.14164530      1.75631046E-03

   2   rms: 0.3866E+00   max: 0.1919E+01   T at   79  1   RLX: 0.782
       a =  0.000      CL =  0.3936
      Cm = -0.1036     CD =  0.02181   =>   CDf =  0.00974    CDp =  0.01207

 MRCHDU: Convergence failed at  88  side 2    Res =  0.3807E+01
 MRCHDU: Convergence failed at  89  side 2    Res =  0.1184E+01
 Side 1  free  transition at x/c =  0.8963   75
 Side 2  free  transition at x/c =  0.9553   76
 idif Ue xi dudx           2  0.38041434      5.45740128E-03   69.706131    
 Uenew xinew           3  0.24763493      3.55255604E-03

   3   rms: 0.2533E+00   max: -.6103E+00   D at   80  2   RLX: 0.819
       a =  0.000      CL =  0.1382
      Cm = -0.0545     CD =  0.03726   =>   CDf =  0.00917    CDp =  0.02809

 Side 1  free  transition at x/c =  0.8736   71
 Side 2  free  transition at x/c =  0.9382   77
 idif Ue xi dudx           2  0.30083475      5.17129898E-03   58.173923    
 Uenew xinew           3  0.17997380      3.09371948E-03

   4   rms: 0.2754E+00   max: -.7367E+00   D at   81  2   RLX: 0.679
       a =  0.000      CL = -0.0978
      Cm = -0.0150     CD =  0.03741   =>   CDf =  0.00853    CDp =  0.02889

 Side 1  free  transition at x/c =  0.8637   69
 Side 2  free  transition at x/c =  0.9465   80

   5   rms: 0.2795E-01   max: -.1672E+00   D at   70  1
       a =  0.000      CL = -0.0728
      Cm = -0.0177     CD =  0.03872   =>   CDf =  0.00804    CDp =  0.03068

 Side 1  free  transition at x/c =  0.8608   68
 Side 2  free  transition at x/c =  0.9430   79

   6   rms: 0.1941E-01   max: 0.7522E-01   T at   68  1
       a =  0.000      CL = -0.0906
      Cm = -0.0152     CD =  0.03857   =>   CDf =  0.00811    CDp =  0.03046

 Side 1  free  transition at x/c =  0.8593   68
 Side 2  free  transition at x/c =  0.9418   79

   7   rms: 0.3055E-02   max: -.1344E-01   D at   95  2
       a =  0.000      CL = -0.0877
      Cm = -0.0157     CD =  0.03848   =>   CDf =  0.00805    CDp =  0.03043

 Side 1  free  transition at x/c =  0.8594   68
 Side 2  free  transition at x/c =  0.9418   79

   8   rms: 0.1015E-03   max: 0.7217E-03   D at   82  2
       a =  0.000      CL = -0.0876
      Cm = -0.0157     CD =  0.03849   =>   CDf =  0.00806    CDp =  0.03043

 Side 1  free  transition at x/c =  0.8594   68
 Side 2  free  transition at x/c =  0.9418   79

   9   rms: 0.9312E-06   max: 0.4774E-05   D at    4  2
       a =  0.000      CL = -0.0876
      Cm = -0.0157     CD =  0.03849   =>   CDf =  0.00806    CDp =  0.03043
 plradd ia,ip,cpol            1          77  4.15803418E-02

 Point added to stored polar  1
 Save file unspecified or not available
 Dump file unspecified or not available

.OPERva   c>  
.OPERva   c>  
.OPERva   c>   Calculating wake trajectory ...
 Calculating source influence matrix ...

 Solving BL system ...

 Side 1  free  transition at x/c =  0.8594   68
 Side 2  free  transition at x/c =  0.9418   79

   1   rms: 0.1363E-01   max: -.1154E+00   D at    4  2   RLX: 0.736
       a =  0.050      CL = -0.0861
      Cm = -0.0156     CD =  0.03851   =>   CDf =  0.00806    CDp =  0.03045

 Side 1  free  transition at x/c =  0.8580   68
 Side 2  free  transition at x/c =  0.9442   80

   2   rms: 0.8220E-02   max: -.7512E-01   D at   79  2
       a =  0.050      CL = -0.0816
      Cm = -0.0162     CD =  0.03855   =>   CDf =  0.00807    CDp =  0.03048

 Side 1  free  transition at x/c =  0.8574   68
 Side 2  free  transition at x/c =  0.9449   80

   3   rms: 0.4547E-03   max: 0.1486E-02   C at   80  2
       a =  0.050      CL = -0.0811
      Cm = -0.0163     CD =  0.03856   =>   CDf =  0.00808    CDp =  0.03048

 Side 1  free  transition at x/c =  0.8574   68
 Side 2  free  transition at x/c =  0.9448   80

   4   rms: 0.1404E-04   max: 0.9939E-04   D at   82  2
       a =  0.050      CL = -0.0811
      Cm = -0.0163     CD =  0.03856   =>   CDf =  0.00808    CDp =  0.03048
 plradd ia,ip,cpol            2          77  4.15803418E-02

 Point added to stored polar  1
 Save file unspecified or not available
 Dump file unspecified or not available

.OPERva   c>  
.OPERva   c>  
.OPERva   c>   Calculating wake trajectory ...
 Calculating source influence matrix ...

 Solving BL system ...

 Side 1  free  transition at x/c =  0.8574   68
 Side 2  free  transition at x/c =  0.9448   80

   1   rms: 0.1676E-01   max: -.1325E+00   D at    3  1   RLX: 0.747
       a =  0.100      CL = -0.0727
      Cm = -0.0173     CD =  0.03867   =>   CDf =  0.00808    CDp =  0.03060

 Side 1  free  transition at x/c =  0.8558   68
 Side 2  free  transition at x/c =  0.9466   80

   2   rms: 0.4493E-02   max: 0.3276E-01   D at    4  2
       a =  0.100      CL = -0.0694
      Cm = -0.0177     CD =  0.03871   =>   CDf =  0.00810    CDp =  0.03061

 Side 1  free  transition at x/c =  0.8553   68
 Side 2  free  transition at x/c =  0.9473   80

   3   rms: 0.5471E-04   max: -.2549E-03   D at    3  2
       a =  0.100      CL = -0.0694
      Cm = -0.0177     CD =  0.03871   =>   CDf =  0.00811    CDp =  0.03060
 plradd ia,ip,cpol            3          77  4.15803418E-02

 Point added to stored polar  1
 Save file unspecified or not available
 Dump file unspecified or not available

.OPERva   c>  
.OPERva   c>  
.OPERva   c>   Calculating wake trajectory ...
 Calculating source influence matrix ...

 Solving BL system ...

 Side 1  free  transition at x/c =  0.8553   68
 Side 2  free  transition at x/c =  0.9473   80

   1   rms: 0.1432E-01   max: -.3241E-01   T at   81  2   RLX: 0.754
       a =  0.150      CL = -0.0601
      Cm = -0.0188     CD =  0.03882   =>   CDf =  0.00811    CDp =  0.03072

 Side 1  free  transition at x/c =  0.8538   68
 Side 2  free  transition at x/c =  0.9492   80

   2   rms: 0.3727E-02   max: -.7921E-02   T at   80  2
       a =  0.150      CL = -0.0567
      Cm = -0.0193     CD =  0.03886   =>   CDf =  0.00813    CDp =  0.03073

 Side 1  free  transition at x/c =  0.8533   68
 Side 2  free  transition at x/c =  0.9499   80

   3   rms: 0.5497E-04   max: -.1782E-03   D at   94  2
       a =  0.150      CL = -0.0566
      Cm = -0.0193     CD =  0.03886   =>   CDf =  0.00814    CDp =  0.03073
 plradd ia,ip,cpol            4          77  4.15803418E-02

 Point added to stored polar  1
 Save file unspecified or not available
 Dump file unspecified or not available

.OPERva   c>  
.OPERva   c>  
.OPERva   c>   Calculating wake trajectory ...
 Calculating source influence matrix ...

 Solving BL system ...

 Side 1  free  transition at x/c =  0.8533   68
 Side 2  free  transition at x/c =  0.9499   80

   1   rms: 0.1577E-01   max: -.9910E-01   D at    4  2   RLX: 0.763
       a =  0.200      CL = -0.0466
      Cm = -0.0205     CD =  0.03898   =>   CDf =  0.00823    CDp =  0.03075

 Side 1  free  transition at x/c =  0.8519   69
 Side 2  free  transition at x/c =  0.9519   79

   2   rms: 0.4634E-02   max: 0.4607E-01   D at    2  1
       a =  0.200      CL = -0.0436
      Cm = -0.0209     CD =  0.03901   =>   CDf =  0.00817    CDp =  0.03084

 Side 1  free  transition at x/c =  0.8515   69
 Side 2  free  transition at x/c =  0.9526   79

   3   rms: 0.2256E-03   max: -.2804E-02   D at    4  1
       a =  0.200      CL = -0.0436
      Cm = -0.0209     CD =  0.03902   =>   CDf =  0.00818    CDp =  0.03084

 Side 1  free  transition at x/c =  0.8515   69
 Side 2  free  transition at x/c =  0.9526   79

   4   rms: 0.1404E-05   max: -.1460E-04   D at    4  1
       a =  0.200      CL = -0.0436
      Cm = -0.0209     CD =  0.03902   =>   CDf =  0.00818    CDp =  0.03084
 plradd ia,ip,cpol            5          78  4.15803418E-02

 Point added to stored polar  1
 Save file unspecified or not available
 Dump file unspecified or not available

.OPERva   c>  
.OPERva   c>  
.OPERva   c>   Calculating wake trajectory ...
 Calculating source influence matrix ...

 Solving BL system ...

 Side 1  free  transition at x/c =  0.8515   69
 Side 2  free  transition at x/c =  0.9526   79

   1   rms: 0.2477E-01   max: -.1989E+00   D at    2  1   RLX: 0.772
       a =  0.250      CL = -0.0327
      Cm = -0.0222     CD =  0.03914   =>   CDf =  0.00818    CDp =  0.03096

 Side 1  free  transition at x/c =  0.8501   69
 Side 2  free  transition at x/c =  0.9549   79

   2   rms: 0.4766E-02   max: 0.4174E-01   D at    3  2
       a =  0.250      CL = -0.0296
      Cm = -0.0225     CD =  0.03917   =>   CDf =  0.00821    CDp =  0.03096

 Side 1  free  transition at x/c =  0.8497   69
 Side 2  free  transition at x/c =  0.9557   79

   3   rms: 0.5443E-04   max: -.3020E-03   D at    6  2
       a =  0.250      CL = -0.0296
      Cm = -0.0225     CD =  0.03918   =>   CDf =  0.00822    CDp =  0.03096
 plradd ia,ip,cpol            6          78  4.15803418E-02

 Point added to stored polar  1
 Save file unspecified or not available
 Dump file unspecified or not available

.OPERva   c>  
.OPERva   c>  
.OPERva   c>   Calculating wake trajectory ...
 Calculating source influence matrix ...

 Solving BL system ...

 Side 1  free  transition at x/c =  0.8497   69
 Side 2  free  transition at x/c =  0.9557   79

   1   rms: 0.1683E-01   max: -.1269E+00   D at    3  1   RLX: 0.781
       a =  0.300      CL = -0.0192
      Cm = -0.0238     CD =  0.03929   =>   CDf =  0.00822    CDp =  0.03107

 Side 1  free  transition at x/c =  0.8484   69
 Side 2  free  transition at x/c =  0.9576   80

   2   rms: 0.8796E-02   max: -.7908E-01   D at   79  2
       a =  0.300      CL = -0.0143
      Cm = -0.0245     CD =  0.03932   =>   CDf =  0.00824    CDp =  0.03108

 Side 1  free  transition at x/c =  0.8481   69
 Side 2  free  transition at x/c =  0.9582   80

   3   rms: 0.3766E-03   max: 0.1835E-02   C at   80  2
       a =  0.300      CL = -0.0139
      Cm = -0.0245     CD =  0.03935   =>   CDf =  0.00826    CDp =  0.03110

 Side 1  free  transition at x/c =  0.8481   69
 Side 2  free  transition at x/c =  0.9582   80

   4   rms: 0.8591E-05   max: 0.5877E-04   D at   83  2
       a =  0.300      CL = -0.0139
      Cm = -0.0245     CD =  0.03936   =>   CDf =  0.00826    CDp =  0.03110
 plradd ia,ip,cpol            7          78  4.87532131E-02

 Point added to stored polar  1
 Save file unspecified or not available
 Dump file unspecified or not available

.OPERva   c>  
.OPERva   c>  
.OPERva   c>   Calculating wake trajectory ...
 Calculating source influence matrix ...

 Solving BL system ...

 Side 1  free  transition at x/c =  0.8481   69
 Side 2  free  transition at x/c =  0.9582   80

   1   rms: 0.1929E-01   max: 0.3856E-01   D at   82  2   RLX: 0.802
       a =  0.350      CL =  0.0026
      Cm = -0.0268     CD =  0.03953   =>   CDf =  0.00826    CDp =  0.03128

 Side 1  free  transition at x/c =  0.8469   69
 Side 2  free  transition at x/c =  0.9596   80

   2   rms: 0.4375E-02   max: 0.7753E-02   D at   82  2
       a =  0.350      CL =  0.0074
      Cm = -0.0275     CD =  0.03960   =>   CDf =  0.00829    CDp =  0.03130

 Side 1  free  transition at x/c =  0.8466   69
 Side 2  free  transition at x/c =  0.9600   80

   3   rms: 0.1032E-03   max: 0.6343E-03   D at   83  2
       a =  0.350      CL =  0.0075
      Cm = -0.0275     CD =  0.03961   =>   CDf =  0.00831    CDp =  0.03130

 Side 1  free  transition at x/c =  0.8466   69
 Side 2  free  transition at x/c =  0.9600   80

   4   rms: 0.3619E-05   max: 0.1834E-04   D at   83  2
       a =  0.350      CL =  0.0075
      Cm = -0.0275     CD =  0.03961   =>   CDf =  0.00831    CDp =  0.03130
 plradd ia,ip,cpol            8          78  4.87532131E-02

 Point added to stored polar  1
 Save file unspecified or not available
 Dump file unspecified or not available

.OPERva   c>  
.OPERva   c>  
.OPERva   c>   Calculating wake trajectory ...
 Calculating source influence matrix ...

 Solving BL system ...

 Side 1  free  transition at x/c =  0.8466   69
 Side 2  free  transition at x/c =  0.9600   80

   1   rms: 0.2160E-01   max: 0.3670E-01   D at   82  2   RLX: 0.824
       a =  0.400      CL =  0.0261
      Cm = -0.0300     CD =  0.03979   =>   CDf =  0.00831    CDp =  0.03149

 Side 1  free  transition at x/c =  0.8455   68
 Side 2  free  transition at x/c =  0.9614   80

   2   rms: 0.6189E-02   max: 0.4013E-01   T at   68  1
       a =  0.400      CL =  0.0205
      Cm = -0.0292     CD =  0.03981   =>   CDf =  0.00835    CDp =  0.03145

 Side 1  free  transition at x/c =  0.8446   68
 Side 2  free  transition at x/c =  0.9620   80

   3   rms: 0.8058E-03   max: -.3219E-02   D at   94  2
       a =  0.400      CL =  0.0211
      Cm = -0.0292     CD =  0.03978   =>   CDf =  0.00834    CDp =  0.03144

 Side 1  free  transition at x/c =  0.8447   68
 Side 2  free  transition at x/c =  0.9620   80

   4   rms: 0.6365E-04   max: 0.4261E-03   D at   83  2
       a =  0.400      CL =  0.0212
      Cm = -0.0293     CD =  0.03978   =>   CDf =  0.00834    CDp =  0.03144
 plradd ia,ip,cpol            9          78  4.87532131E-02

 Point added to stored polar  1
 Save file unspecified or not available
 Dump file unspecified or not available

.OPERva   c>  
.OPERva   c>  
.OPERva   c>   Calculating wake trajectory ...
 Calculating source influence matrix ...

 Solving BL system ...

 Side 1  free  transition at x/c =  0.8447   68
 Side 2  free  transition at x/c =  0.9620   80

   1   rms: 0.1483E-01   max: 0.1391E+00   D at    3  1   RLX: 0.807
       a =  0.450      CL =  0.0229
      Cm = -0.0294     CD =  0.03988   =>   CDf =  0.00834    CDp =  0.03154

 Side 1  free  transition at x/c =  0.8426   68
 Side 2  free  transition at x/c =  0.9638   80

   2   rms: 0.3742E-02   max: 0.2419E-01   D at    3  1
       a =  0.450      CL =  0.0261
      Cm = -0.0298     CD =  0.03988   =>   CDf =  0.00834    CDp =  0.03154

 Side 1  free  transition at x/c =  0.8423   68
 Side 2  free  transition at x/c =  0.9643   80

   3   rms: 0.8881E-04   max: 0.5074E-03   D at   83  2
       a =  0.450      CL =  0.0262
      Cm = -0.0298     CD =  0.03988   =>   CDf =  0.00835    CDp =  0.03154
 plradd ia,ip,cpol           10          78  4.87532131E-02

 Point added to stored polar  1
 Save file unspecified or not available
 Dump file unspecified or not available

.OPERva   c>  
.OPERva   c>  
.OPERva   c>   Calculating wake trajectory ...
 Calculating source influence matrix ...

 Solving BL system ...

 Side 1  free  transition at x/c =  0.8423   68
 Side 2  free  transition at x/c =  0.9643   80

   1   rms: 0.1634E-01   max: -.1619E+00   D at    3  2   RLX: 0.813
       a =  0.500      CL =  0.0326
      Cm = -0.0306     CD =  0.04000   =>   CDf =  0.00835    CDp =  0.03165

 Side 1  free  transition at x/c =  0.8406   68
 Side 2  free  transition at x/c =  0.9661   80

   2   rms: 0.3608E-02   max: -.3695E-01   T at    3  2
       a =  0.500      CL =  0.0348
      Cm = -0.0309     CD =  0.04001   =>   CDf =  0.00836    CDp =  0.03165

 Side 1  free  transition at x/c =  0.8402   68
 Side 2  free  transition at x/c =  0.9666   80

   3   rms: 0.7988E-04   max: 0.8488E-03   D at    4  2
       a =  0.500      CL =  0.0348
      Cm = -0.0309     CD =  0.04001   =>   CDf =  0.00836    CDp =  0.03164
 plradd ia,ip,cpol           11          78  0.25820407    

 Point added to stored polar  1
 Save file unspecified or not available
 Dump file unspecified or not available

.OPERva   c>  
.OPERva   c>  
.OPERva   c>   Calculating wake trajectory ...
 Calculating source influence matrix ...

 Solving BL system ...

 Side 1  free  transition at x/c =  0.8402   68
 Side 2  free  transition at x/c =  0.9666   80

   1   rms: 0.1313E-01   max: 0.8947E-01   D at    3  2   RLX: 0.819
       a =  0.550      CL =  0.0427
      Cm = -0.0318     CD =  0.04013   =>   CDf =  0.00844    CDp =  0.03169

 Side 1  free  transition at x/c =  0.8385   69
 Side 2  free  transition at x/c =  0.9685   79

   2   rms: 0.7633E-02   max: -.1320E+00   D at    2  1
       a =  0.550      CL =  0.0447
      Cm = -0.0320     CD =  0.04014   =>   CDf =  0.00838    CDp =  0.03176

 Side 1  free  transition at x/c =  0.8381   69
 Side 2  free  transition at x/c =  0.9690   79

   3   rms: 0.4256E-03   max: -.5964E-02   D at    4  1
       a =  0.550      CL =  0.0447
      Cm = -0.0320     CD =  0.04014   =>   CDf =  0.00839    CDp =  0.03175

 Side 1  free  transition at x/c =  0.8381   69
 Side 2  free  transition at x/c =  0.9690   79

   4   rms: 0.9274E-05   max: -.1202E-03   D at    4  1
       a =  0.550      CL =  0.0447
      Cm = -0.0320     CD =  0.04014   =>   CDf =  0.00839    CDp =  0.03175
 plradd ia,ip,cpol           12          79  0.25820407    

 Point added to stored polar  1
 Save file unspecified or not available
 Dump file unspecified or not available

.OPERva   c>  
.OPERva   c>  
.OPERva   c>   Calculating wake trajectory ...
 Calculating source influence matrix ...

 Solving BL system ...

 Side 1  free  transition at x/c =  0.8381   69
 Side 2  free  transition at x/c =  0.9690   79

   1   rms: 0.1266E-01   max: -.2433E-01   T at   79  2   RLX: 0.825
       a =  0.600      CL =  0.0530
      Cm = -0.0331     CD =  0.04025   =>   CDf =  0.00839    CDp =  0.03186

 Side 1  free  transition at x/c =  0.8366   69
 Side 2  free  transition at x/c =  0.9707   80

   2   rms: 0.7100E-02   max: -.7896E-01   D at   79  2
       a =  0.600      CL =  0.0561
      Cm = -0.0335     CD =  0.04026   =>   CDf =  0.00841    CDp =  0.03185

 Side 1  free  transition at x/c =  0.8363   69
 Side 2  free  transition at x/c =  0.9712   80

   3   rms: 0.2716E-03   max: 0.1752E-02   C at   80  2
       a =  0.600      CL =  0.0564
      Cm = -0.0335     CD =  0.04028   =>   CDf =  0.00841    CDp =  0.03187

 Side 1  free  transition at x/c =  0.8363   69
 Side 2  free  transition at x/c =  0.9711   80

   4   rms: 0.4684E-05   max: 0.2285E-04   D at   82  2
       a =  0.600      CL =  0.0564
      Cm = -0.0335     CD =  0.04028   =>   CDf =  0.00841    CDp =  0.03187
 plradd ia,ip,cpol           13          79  0.25820407    

 Point added to stored polar  1
 Save file unspecified or not available
 Dump file unspecified or not available

.OPERva   c>  
.OPERva   c>  
.OPERva   c>   Calculating wake trajectory ...
 Calculating source influence matrix ...

 Solving BL system ...

 Side 1  free  transition at x/c =  0.8363   69
 Side 2  free  transition at x/c =  0.9711   80

   1   rms: 0.1910E-01   max: 0.1236E+00   D at    3  2   RLX: 0.841
       a =  0.650      CL =  0.0702
      Cm = -0.0354     CD =  0.04042   =>   CDf =  0.00841    CDp =  0.03200

 Side 1  free  transition at x/c =  0.8346   69
 Side 2  free  transition at x/c =  0.9725   80

   2   rms: 0.3340E-02   max: 0.2333E-01   D at    3  2
       a =  0.650      CL =  0.0733
      Cm = -0.0358     CD =  0.04044   =>   CDf =  0.00844    CDp =  0.03200

 Side 1  free  transition at x/c =  0.8343   69
 Side 2  free  transition at x/c =  0.9728   80

   3   rms: 0.5380E-04   max: 0.3306E-03   D at   82  2
       a =  0.650      CL =  0.0734
      Cm = -0.0358     CD =  0.04045   =>   CDf =  0.00845    CDp =  0.03200
 plradd ia,ip,cpol           14          79  0.25820407    

 Point added to stored polar  1
 Save file unspecified or not available
 Dump file unspecified or not available

.OPERva   c>  
.OPERva   c>  
.OPERva   c>   Calculating wake trajectory ...
 Calculating source influence matrix ...

 Solving BL system ...

 Side 1  free  transition at x/c =  0.8343   69
 Side 2  free  transition at x/c =  0.9727   80

   1   rms: 0.1765E-01   max: -.1161E+00   D at    3  2   RLX: 0.857
       a =  0.700      CL =  0.0874
      Cm = -0.0377     CD =  0.04058   =>   CDf =  0.00845    CDp =  0.03214

 Side 1  free  transition at x/c =  0.8329   69
 Side 2  free  transition at x/c =  0.9742   80

   2   rms: 0.2872E-02   max: -.2145E-01   D at    3  2
       a =  0.700      CL =  0.0900
      Cm = -0.0381     CD =  0.04061   =>   CDf =  0.00847    CDp =  0.03213

 Side 1  free  transition at x/c =  0.8327   69
 Side 2  free  transition at x/c =  0.9744   80

   3   rms: 0.5070E-04   max: 0.3197E-03   D at   82  2
       a =  0.700      CL =  0.0900
      Cm = -0.0381     CD =  0.04061   =>   CDf =  0.00848    CDp =  0.03213
 plradd ia,ip,cpol           15          79  0.25820407    

 Point added to stored polar  1
 Save file unspecified or not available
 Dump file unspecified or not available

.OPERva   c>  
.OPERva   c>  
.OPERva   c>   Calculating wake trajectory ...
 Calculating source influence matrix ...

 Solving BL system ...

 Side 1  free  transition at x/c =  0.8327   69
 Side 2  free  transition at x/c =  0.9744   80

   1   rms: 0.1637E-01   max: -.1917E-01   T at   80  2   RLX: 0.874
       a =  0.750      CL =  0.1051
      Cm = -0.0401     CD =  0.04073   =>   CDf =  0.00848    CDp =  0.03225

 Side 1  free  transition at x/c =  0.8313   69
 Side 2  free  transition at x/c =  0.9759   80

   2   rms: 0.2371E-02   max: -.3473E-02   D at   92  2
       a =  0.750      CL =  0.1075
      Cm = -0.0404     CD =  0.04075   =>   CDf =  0.00851    CDp =  0.03225

 Side 1  free  transition at x/c =  0.8312   69
 Side 2  free  transition at x/c =  0.9762   80

   3   rms: 0.9147E-04   max: 0.5858E-03   D at   82  2
       a =  0.750      CL =  0.1076
      Cm = -0.0404     CD =  0.04076   =>   CDf =  0.00851    CDp =  0.03225
 plradd ia,ip,cpol           16          79  0.25820407    

 Point added to stored polar  1
 Save file unspecified or not available
 Dump file unspecified or not available

.OPERva   c>  
.OPERva   c>  
.OPERva   c>   Calculating wake trajectory ...
 Calculating source influence matrix ...

 Solving BL system ...

 Side 1  free  transition at x/c =  0.8312   69
 Side 2  free  transition at x/c =  0.9761   80

   1   rms: 0.2010E-01   max: -.1465E+00   D at    3  1   RLX: 0.893
       a =  0.800      CL =  0.1235
      Cm = -0.0425     CD =  0.04088   =>   CDf =  0.00851    CDp =  0.03237

 Side 1  free  transition at x/c =  0.8300   69
 Side 2  free  transition at x/c =  0.9778   80

   2   rms: 0.2685E-02   max: -.1818E-01   T at    3  2
       a =  0.800      CL =  0.1258
      Cm = -0.0428     CD =  0.04091   =>   CDf =  0.00854    CDp =  0.03236

 Side 1  free  transition at x/c =  0.8299   69
 Side 2  free  transition at x/c =  0.9780   80

   3   rms: 0.9814E-04   max: 0.6056E-03   D at   82  2
       a =  0.800      CL =  0.1259
      Cm = -0.0428     CD =  0.04091   =>   CDf =  0.00855    CDp =  0.03236
 plradd ia,ip,cpol           17          79  0.24290843    

 Point added to stored polar  1
 Save file unspecified or not available
 Dump file unspecified or not available

.OPERva   c>  
.OPERva   c>  
.OPERva   c>   Calculating wake trajectory ...
 Calculating source influence matrix ...

 Solving BL system ...

 Side 1  free  transition at x/c =  0.8299   69
 Side 2  free  transition at x/c =  0.9780   80

   1   rms: 0.2137E-01   max: 0.1514E+00   D at    3  1   RLX: 0.914
       a =  0.850      CL =  0.1433
      Cm = -0.0450     CD =  0.04102   =>   CDf =  0.00855    CDp =  0.03247

 Side 1  free  transition at x/c =  0.8287   68
 Side 2  free  transition at x/c =  0.9796   80

   2   rms: 0.8460E-02   max: 0.4172E-01   T at   68  1
       a =  0.850      CL =  0.1346
      Cm = -0.0438     CD =  0.04109   =>   CDf =  0.00858    CDp =  0.03251

 Side 1  free  transition at x/c =  0.8278   68
 Side 2  free  transition at x/c =  0.9802   80

   3   rms: 0.1300E-02   max: -.4453E-02   D at   93  2
       a =  0.850      CL =  0.1357
      Cm = -0.0440     CD =  0.04104   =>   CDf =  0.00856    CDp =  0.03248

 Side 1  free  transition at x/c =  0.8279   68
 Side 2  free  transition at x/c =  0.9802   80

   4   rms: 0.9307E-04   max: 0.4864E-03   D at   82  2
       a =  0.850      CL =  0.1359
      Cm = -0.0440     CD =  0.04105   =>   CDf =  0.00857    CDp =  0.03248
 plradd ia,ip,cpol           18          79  0.24290843    

 Point added to stored polar  1
 Save file unspecified or not available
 Dump file unspecified or not available

.OPERva   c>  
.OPERva   c>  
.OPERva   c>   Calculating wake trajectory ...
 Calculating source influence matrix ...

 Solving BL system ...

 Side 1  free  transition at x/c =  0.8279   68
 Side 2  free  transition at x/c =  0.9802   80

   1   rms: 0.1181E-01   max: 0.1063E+00   T at   68  1   RLX: 0.884
       a =  0.900      CL =  0.1325
      Cm = -0.0434     CD =  0.04121   =>   CDf =  0.00857    CDp =  0.03264

 Side 1  free  transition at x/c =  0.8254   68
 Side 2  free  transition at x/c =  0.9827   80

   2   rms: 0.3533E-02   max: -.1096E-01   D at   93  2
       a =  0.900      CL =  0.1356
      Cm = -0.0437     CD =  0.04116   =>   CDf =  0.00856    CDp =  0.03260

 Side 1  free  transition at x/c =  0.8254   68
 Side 2  free  transition at x/c =  0.9827   81

   3   rms: 0.5015E-02   max: -.7555E-01   D at   80  2
       a =  0.900      CL =  0.1360
      Cm = -0.0438     CD =  0.04117   =>   CDf =  0.00856    CDp =  0.03260

 Side 1  free  transition at x/c =  0.8254   68
 Side 2  free  transition at x/c =  0.9829   81

   4   rms: 0.2203E-03   max: 0.1772E-02   C at   81  2
       a =  0.900      CL =  0.1361
      Cm = -0.0438     CD =  0.04118   =>   CDf =  0.00856    CDp =  0.03261

 Side 1  free  transition at x/c =  0.8253   68
 Side 2  free  transition at x/c =  0.9828   81

   5   rms: 0.4772E-05   max: -.4325E-04   D at    4  2
       a =  0.900      CL =  0.1361
      Cm = -0.0438     CD =  0.04118   =>   CDf =  0.00856    CDp =  0.03261
 plradd ia,ip,cpol           19          79  0.24290843    

 Point added to stored polar  1
 Save file unspecified or not available
 Dump file unspecified or not available

.OPERva   c>  
.OPERva   c>  
.OPERva   c>   Calculating wake trajectory ...
 Calculating source influence matrix ...

 Solving BL system ...

 Side 1  free  transition at x/c =  0.8253   68
 Side 2  free  transition at x/c =  0.9828   81

   1   rms: 0.1118E-01   max: 0.7564E-01   T at   68  1   RLX: 0.892
       a =  0.950      CL =  0.1426
      Cm = -0.0447     CD =  0.04132   =>   CDf =  0.00856    CDp =  0.03276

 Side 1  free  transition at x/c =  0.8231   68
 Side 2  free  transition at x/c =  0.9845   81

   2   rms: 0.2002E-02   max: -.4701E-02   D at   93  2
       a =  0.950      CL =  0.1444
      Cm = -0.0449     CD =  0.04130   =>   CDf =  0.00857    CDp =  0.03273

 Side 1  free  transition at x/c =  0.8230   68
 Side 2  free  transition at x/c =  0.9848   81

   3   rms: 0.8598E-04   max: 0.5603E-03   D at   82  2
       a =  0.950      CL =  0.1445
      Cm = -0.0449     CD =  0.04131   =>   CDf =  0.00857    CDp =  0.03274
 plradd ia,ip,cpol           20          79  0.24290843    

 Point added to stored polar  1
 Save file unspecified or not available
 Dump file unspecified or not available

.OPERva   c>  
.OPERva   c>  
.OPERva   c>   Calculating wake trajectory ...
 Calculating source influence matrix ...

 Solving BL system ...

 Side 1  free  transition at x/c =  0.8230   68
 Side 2  free  transition at x/c =  0.9848   81

   1   rms: 0.1221E-01   max: -.2470E-01   T at   82  2   RLX: 0.900
       a =  1.000      CL =  0.1535
      Cm = -0.0461     CD =  0.04145   =>   CDf =  0.00862    CDp =  0.03283

 Side 1  free  transition at x/c =  0.8211   69
 Side 2  free  transition at x/c =  0.9866   80

   2   rms: 0.1920E-02   max: -.1816E-01   T at    2  1
       a =  1.000      CL =  0.1548
      Cm = -0.0462     CD =  0.04144   =>   CDf =  0.00859    CDp =  0.03285

 Side 1  free  transition at x/c =  0.8210   69
 Side 2  free  transition at x/c =  0.9869   80

   3   rms: 0.4194E-03   max: 0.5578E-02   D at    4  1
       a =  1.000      CL =  0.1549
      Cm = -0.0462     CD =  0.04144   =>   CDf =  0.00859    CDp =  0.03285

 Side 1  free  transition at x/c =  0.8210   69
 Side 2  free  transition at x/c =  0.9869   80

   4   rms: 0.3247E-05   max: -.4458E-04   D at    4  1
       a =  1.000      CL =  0.1549
      Cm = -0.0462     CD =  0.04144   =>   CDf =  0.00859    CDp =  0.03285
 plradd ia,ip,cpol           21          80  0.24290843    

 Point added to stored polar  1
 Save file unspecified or not available
 Dump file unspecified or not available

.OPERva   c>  
.OPERva   c>  
.OPERva   c>   Calculating wake trajectory ...
 Calculating source influence matrix ...

 Solving BL system ...

 Side 1  free  transition at x/c =  0.8210   69
 Side 2  free  transition at x/c =  0.9869   80

   1   rms: 0.1422E-01   max: -.1116E+00   D at    4  2   RLX: 0.909
       a =  1.050      CL =  0.1649
      Cm = -0.0475     CD =  0.04156   =>   CDf =  0.00859    CDp =  0.03297

 Side 1  free  transition at x/c =  0.8192   69
 Side 2  free  transition at x/c =  0.9887   80

   2   rms: 0.1752E-02   max: -.1280E-01   D at    4  2
       a =  1.050      CL =  0.1663
      Cm = -0.0477     CD =  0.04156   =>   CDf =  0.00861    CDp =  0.03295

 Side 1  free  transition at x/c =  0.8190   69
 Side 2  free  transition at x/c =  0.9889   80

   3   rms: 0.6385E-04   max: 0.3810E-03   D at   81  2
       a =  1.050      CL =  0.1664
      Cm = -0.0477     CD =  0.04156   =>   CDf =  0.00861    CDp =  0.03295
 plradd ia,ip,cpol           22          80  0.24290843    

 Point added to stored polar  1
 Save file unspecified or not available
 Dump file unspecified or not available

.OPERva   c>  
.OPERva   c>  
.OPERva   c>   Calculating wake trajectory ...
 Calculating source influence matrix ...

 Solving BL system ...

 Side 1  free  transition at x/c =  0.8190   69
 Side 2  free  transition at x/c =  0.9889   80

   1   rms: 0.1574E-01   max: 0.1203E+00   D at    4  2   RLX: 0.919
       a =  1.100      CL =  0.1774
      Cm = -0.0491     CD =  0.04168   =>   CDf =  0.00861    CDp =  0.03307

 Side 1  free  transition at x/c =  0.8174   69
 Side 2  free  transition at x/c =  0.9908   80

   2   rms: 0.1754E-02   max: 0.1097E-01   D at    4  2
       a =  1.100      CL =  0.1789
      Cm = -0.0492     CD =  0.04167   =>   CDf =  0.00863    CDp =  0.03304

 Side 1  free  transition at x/c =  0.8173   69
 Side 2  free  transition at x/c =  0.9910   80

   3   rms: 0.8233E-04   max: 0.4641E-03   D at   81  2
       a =  1.100      CL =  0.1790
      Cm = -0.0492     CD =  0.04168   =>   CDf =  0.00863    CDp =  0.03305
 plradd ia,ip,cpol           23          80  0.24290843    

 Point added to stored polar  1
 Save file unspecified or not available
 Dump file unspecified or not available

.OPERva   c>  
.OPERva   c>  
.OPERva   c>   Calculating wake trajectory ...
 Calculating source influence matrix ...

 Solving BL system ...

 Side 1  free  transition at x/c =  0.8173   69
 Side 2  free  transition at x/c =  0.9910   80

   1   rms: 0.1616E-01   max: 0.1324E+00   D at    4  1   RLX: 0.933
       a =  1.150      CL =  0.1916
      Cm = -0.0508     CD =  0.04177   =>   CDf =  0.00863    CDp =  0.03314

 Side 1  free  transition at x/c =  0.8158   69
 Side 2  free  transition at x/c =  0.9929   80

   2   rms: 0.1409E-02   max: -.2594E-02   D at   89  2
       a =  1.150      CL =  0.1929
      Cm = -0.0510     CD =  0.04178   =>   CDf =  0.00865    CDp =  0.03313

 Side 1  free  transition at x/c =  0.8158   69
 Side 2  free  transition at x/c =  0.9931   80

   3   rms: 0.5842E-04   max: 0.3170E-03   D at   81  2
       a =  1.150      CL =  0.1930
      Cm = -0.0510     CD =  0.04178   =>   CDf =  0.00865    CDp =  0.03313
 plradd ia,ip,cpol           24          80  0.24290843    

 Point added to stored polar  1
 Save file unspecified or not available
 Dump file unspecified or not available

.OPERva   c>  
.OPERva   c>  
.OPERva   c>   Calculating wake trajectory ...
 Calculating source influence matrix ...

 Solving BL system ...

 Side 1  free  transition at x/c =  0.8158   69
 Side 2  free  transition at x/c =  0.9931   80

   1   rms: 0.1644E-01   max: -.1877E-01   T at   80  2   RLX: 0.949
       a =  1.200      CL =  0.2069
      Cm = -0.0527     CD =  0.04187   =>   CDf =  0.00865    CDp =  0.03321

 Side 1  free  transition at x/c =  0.8143   69
 Side 2  free  transition at x/c =  0.9949   81

   2   rms: 0.3951E-02   max: -.6563E-01   D at   80  2
       a =  1.200      CL =  0.2090
      Cm = -0.0530     CD =  0.04186   =>   CDf =  0.00867    CDp =  0.03319

 Side 1  free  transition at x/c =  0.8143   69
 Side 2  free  transition at x/c =  0.9951   81

   3   rms: 0.1512E-03   max: 0.8168E-03   D at   81  2
       a =  1.200      CL =  0.2091
      Cm = -0.0530     CD =  0.04188   =>   CDf =  0.00867    CDp =  0.03320

 Side 1  free  transition at x/c =  0.8143   69
 Side 2  free  transition at x/c =  0.9951   81

   4   rms: 0.2222E-05   max: -.1068E-04   D at   89  2
       a =  1.200      CL =  0.2092
      Cm = -0.0530     CD =  0.04188   =>   CDf =  0.00867    CDp =  0.03320
 plradd ia,ip,cpol           25          80  0.24290843    

 Point added to stored polar  1
 Save file unspecified or not available
 Dump file unspecified or not available

.OPERva   c>  
.OPERva   c>  
.OPERva   c>   Calculating wake trajectory ...
 Calculating source influence matrix ...

 Solving BL system ...

 Side 1  free  transition at x/c =  0.8143   69
 Side 2  free  transition at x/c =  0.9951   81

   1   rms: 0.1725E-01   max: -.1693E-01   T at   81  2   RLX: 0.971
       a =  1.250      CL =  0.2252
      Cm = -0.0550     CD =  0.04195   =>   CDf =  0.00868    CDp =  0.03327

 Side 1  free  transition at x/c =  0.8130   69
 Side 2  free  transition at x/c =  0.9969   81

   2   rms: 0.1422E-02   max: -.3809E-02   D at   89  2
       a =  1.250      CL =  0.2265
      Cm = -0.0552     CD =  0.04196   =>   CDf =  0.00870    CDp =  0.03326

 Side 1  free  transition at x/c =  0.8130   69
 Side 2  free  transition at x/c =  0.9970   81

   3   rms: 0.1076E-03   max: 0.5428E-03   D at   81  2
       a =  1.250      CL =  0.2266
      Cm = -0.0552     CD =  0.04197   =>   CDf =  0.00870    CDp =  0.03327

 Side 1  free  transition at x/c =  0.8130   69
 Side 2  free  transition at x/c =  0.9970   81

   4   rms: 0.2397E-05   max: 0.1542E-04   D at   81  2
       a =  1.250      CL =  0.2266
      Cm = -0.0552     CD =  0.04197   =>   CDf =  0.00870    CDp =  0.03327
 plradd ia,ip,cpol           26          80  0.24290843    

 Point added to stored polar  1
 Save file unspecified or not available
 Dump file unspecified or not available

.OPERva   c>  
.OPERva   c>  
.OPERva   c>   Calculating wake trajectory ...
 Calculating source influence matrix ...

 Solving BL system ...

 Side 1  free  transition at x/c =  0.8130   69
 Side 2  free  transition at x/c =  0.9970   81

   1   rms: 0.2065E-01   max: 0.1846E+00   D at    3  2   RLX: 0.994
       a =  1.300      CL =  0.2438
      Cm = -0.0574     CD =  0.04205   =>   CDf =  0.00870    CDp =  0.03335

 Side 1  free  transition at x/c =  0.8120   68
 Side 2  free  transition at x/c =  0.9988   81

   2   rms: 0.9925E-02   max: 0.2192E-01   D at   92  2
       a =  1.300      CL =  0.2336
      Cm = -0.0561     CD =  0.04221   =>   CDf =  0.00873    CDp =  0.03348

 Side 1  free  transition at x/c =  0.8110   68
 Side 2  free  transition at x/c =  0.9997   81

   3   rms: 0.1280E-02   max: -.5390E-02   T at   68  1
       a =  1.300      CL =  0.2346
      Cm = -0.0562     CD =  0.04213   =>   CDf =  0.00871    CDp =  0.03342

 Side 1  free  transition at x/c =  0.8112   68
 Side 2  free  transition at x/c =  0.9995   81

   4   rms: 0.1443E-03   max: 0.5029E-03   D at   81  2
       a =  1.300      CL =  0.2348
      Cm = -0.0562     CD =  0.04214   =>   CDf =  0.00871    CDp =  0.03343

 Side 1  free  transition at x/c =  0.8112   68
 Side 2  free  transition at x/c =  0.9995   81

   5   rms: 0.9629E-05   max: 0.3904E-04   C at   81  2
       a =  1.300      CL =  0.2348
      Cm = -0.0562     CD =  0.04214   =>   CDf =  0.00871    CDp =  0.03343
 plradd ia,ip,cpol           27          80  0.24290843    

 Point added to stored polar  1
 Save file unspecified or not available
 Dump file unspecified or not available

.OPERva   c>  
.OPERva   c>  
.OPERva   c>   Calculating wake trajectory ...
 Calculating source influence matrix ...

 Solving BL system ...

 Side 1  free  transition at x/c =  0.8112   68
 Side 2  free  transition at x/c =  0.9995   81

   1   rms: 0.1494E-01   max: 0.1145E+00   T at   68  1   RLX: 0.955
       a =  1.350      CL =  0.2296
      Cm = -0.0555     CD =  0.04245   =>   CDf =  0.00871    CDp =  0.03373

 Side 1  free  transition at x/c =  0.8081   68
 Side 2 forced transition at x/c =  1.0000   81

   2   rms: 0.7526E-02   max: -.5455E-01   D at   81  2
       a =  1.350      CL =  0.2224
      Cm = -0.0540     CD =  0.04223   =>   CDf =  0.00870    CDp =  0.03353

 Side 1  free  transition at x/c =  0.8084   68
 Side 2 forced transition at x/c =  1.0000   81

   3   rms: 0.6370E-04   max: -.6313E-03   D at   92  2
       a =  1.350      CL =  0.2224
      Cm = -0.0540     CD =  0.04225   =>   CDf =  0.00870    CDp =  0.03355
 plradd ia,ip,cpol           28          80  0.24290843    

 Point added to stored polar  1
 Save file unspecified or not available
 Dump file unspecified or not available

.OPERva   c>  
.OPERva   c>  
.OPERva   c>   Calculating wake trajectory ...
 Calculating source influence matrix ...

 Solving BL system ...

 Side 1  free  transition at x/c =  0.8084   68
 Side 2 forced transition at x/c =  1.0000   81

   1   rms: 0.1246E-01   max: -.9957E-01   D at    3  2   RLX: 0.917
       a =  1.400      CL =  0.2144
      Cm = -0.0525     CD =  0.04235   =>   CDf =  0.00870    CDp =  0.03365

 Side 1  free  transition at x/c =  0.8062   68
 Side 2 forced transition at x/c =  1.0000   81

   2   rms: 0.1911E-02   max: -.4695E-02   D at   92  2
       a =  1.400      CL =  0.2162
      Cm = -0.0527     CD =  0.04231   =>   CDf =  0.00869    CDp =  0.03361

 Side 1  free  transition at x/c =  0.8061   68
 Side 2 forced transition at x/c =  1.0000   81

   3   rms: 0.2339E-04   max: -.1301E-03   D at   89  2
       a =  1.400      CL =  0.2162
      Cm = -0.0527     CD =  0.04231   =>   CDf =  0.00870    CDp =  0.03362
 plradd ia,ip,cpol           29          80  0.24290843    

 Point added to stored polar  1
 Save file unspecified or not available
 Dump file unspecified or not available

.OPERva   c>  
.OPERva   c>  
.OPERva   c>   Calculating wake trajectory ...
 Calculating source influence matrix ...

 Solving BL system ...

 Side 1  free  transition at x/c =  0.8061   68
 Side 2 forced transition at x/c =  1.0000   81

   1   rms: 0.9864E-02   max: -.7398E-01   D at    3  1   RLX: 0.905
       a =  1.450      CL =  0.2127
      Cm = -0.0518     CD =  0.04240   =>   CDf =  0.00870    CDp =  0.03371

 Side 1  free  transition at x/c =  0.8043   68
 Side 2 forced transition at x/c =  1.0000   81

   2   rms: 0.1319E-02   max: -.7348E-02   D at    3  1
       a =  1.450      CL =  0.2137
      Cm = -0.0518     CD =  0.04236   =>   CDf =  0.00870    CDp =  0.03366

 Side 1  free  transition at x/c =  0.8041   68
 Side 2 forced transition at x/c =  1.0000   81

   3   rms: 0.1090E-04   max: -.5321E-04   C at   81  2
       a =  1.450      CL =  0.2137
      Cm = -0.0518     CD =  0.04236   =>   CDf =  0.00870    CDp =  0.03366
 plradd ia,ip,cpol           30          80  0.24290843    

 Point added to stored polar  1
 Save file unspecified or not available
 Dump file unspecified or not available

.OPERva   c>  
.OPERva   c>  
.OPERva   c>   Calculating wake trajectory ...
 Calculating source influence matrix ...

 Solving BL system ...

 Side 1  free  transition at x/c =  0.8041   68
 Side 2 forced transition at x/c =  1.0000   81

   1   rms: 0.7783E-02   max: 0.5517E-01   T at   68  1   RLX: 0.896
       a =  1.500      CL =  0.2133
      Cm = -0.0513     CD =  0.04242   =>   CDf =  0.00870    CDp =  0.03372

 Side 1  free  transition at x/c =  0.8023   68
 Side 2 forced transition at x/c =  1.0000   81

   2   rms: 0.1429E-02   max: -.2372E-02   D at   92  2
       a =  1.500      CL =  0.2145
      Cm = -0.0514     CD =  0.04239   =>   CDf =  0.00870    CDp =  0.03368

 Side 1  free  transition at x/c =  0.8022   68
 Side 2 forced transition at x/c =  1.0000   81

   3   rms: 0.1594E-04   max: -.7000E-04   D at   89  2
       a =  1.500      CL =  0.2146
      Cm = -0.0514     CD =  0.04239   =>   CDf =  0.00871    CDp =  0.03368
 plradd ia,ip,cpol           31          80  0.24290843    

 Point added to stored polar  1
 Save file unspecified or not available
 Dump file unspecified or not available

.OPERva   c>  
.OPERva   c>  
.OPERva   c>   Calculating wake trajectory ...
 Calculating source influence matrix ...

 Solving BL system ...

 Side 1  free  transition at x/c =  0.8022   68
 Side 2 forced transition at x/c =  1.0000   81

   1   rms: 0.8696E-02   max: -.5949E-01   D at    5  1   RLX: 0.890
       a =  1.550      CL =  0.2154
      Cm = -0.0511     CD =  0.04245   =>   CDf =  0.00871    CDp =  0.03375

 Side 1  free  transition at x/c =  0.8008   68
 Side 2 forced transition at x/c =  1.0000   81

   2   rms: 0.1218E-02   max: -.2443E-02   C at   81  2
       a =  1.550      CL =  0.2162
      Cm = -0.0512     CD =  0.04243   =>   CDf =  0.00871    CDp =  0.03372

 Side 1  free  transition at x/c =  0.8006   68
 Side 2 forced transition at x/c =  1.0000   81

   3   rms: 0.5750E-05   max: -.1510E-04   D at   82  2
       a =  1.550      CL =  0.2163
      Cm = -0.0512     CD =  0.04243   =>   CDf =  0.00871    CDp =  0.03372
 plradd ia,ip,cpol           32          80  0.24290843    

 Point added to stored polar  1
 Save file unspecified or not available
 Dump file unspecified or not available

.OPERva   c>  
.OPERva   c>  
.OPERva   c>   Calculating wake trajectory ...
 Calculating source influence matrix ...

 Solving BL system ...

 Side 1  free  transition at x/c =  0.8006   68
 Side 2 forced transition at x/c =  1.0000   81

   1   rms: 0.1320E-01   max: -.1434E+00   D at    3  2   RLX: 0.888
       a =  1.600      CL =  0.2200
      Cm = -0.0512     CD =  0.04246   =>   CDf =  0.00871    CDp =  0.03374

 Side 1  free  transition at x/c =  0.7991   68
 Side 2 forced transition at x/c =  1.0000   81

   2   rms: 0.2176E-02   max: 0.1514E-01   T at    4  2
       a =  1.600      CL =  0.2216
      Cm = -0.0514     CD =  0.04245   =>   CDf =  0.00874    CDp =  0.03371

 Side 1  free  transition at x/c =  0.7990   69
 Side 2 forced transition at x/c =  1.0000   80

   3   rms: 0.4626E-02   max: -.7779E-01   D at    2  1
       a =  1.600      CL =  0.2216
      Cm = -0.0514     CD =  0.04245   =>   CDf =  0.00873    CDp =  0.03372

 Side 1  free  transition at x/c =  0.7990   69
 Side 2 forced transition at x/c =  1.0000   80

   4   rms: 0.1237E-02   max: 0.1687E-01   D at    4  1
       a =  1.600      CL =  0.2216
      Cm = -0.0514     CD =  0.04245   =>   CDf =  0.00873    CDp =  0.03372

 Side 1  free  transition at x/c =  0.7990   69
 Side 2 forced transition at x/c =  1.0000   80

   5   rms: 0.8568E-05   max: -.1069E-03   D at    4  1
       a =  1.600      CL =  0.2216
      Cm = -0.0514     CD =  0.04245   =>   CDf =  0.00873    CDp =  0.03372
 plradd ia,ip,cpol           33          81  0.24290843    

 Point added to stored polar  1
 Save file unspecified or not available
 Dump file unspecified or not available

.OPERva   c>  
.OPERva   c>  
.OPERva   c>   Calculating wake trajectory ...
 Calculating source influence matrix ...

 Solving BL system ...

 Side 1  free  transition at x/c =  0.7990   69
 Side 2 forced transition at x/c =  1.0000   80
 idif Ue xi dudx           1  0.13382137      1.91211700E-03   69.985970    
 Uenew xinew           2  5.08921628E-04  7.27176666E-06

   1   rms: 0.1304E-01   max: -.1265E+00   D at    3  1   RLX: 0.890
       a =  1.650      CL =  0.2270
      Cm = -0.0517     CD =  0.04248   =>   CDf =  0.00875    CDp =  0.03373

 Side 1  free  transition at x/c =  0.7976   68
 Side 2 forced transition at x/c =  1.0000   81

   2   rms: 0.8545E-02   max: -.1469E+00   D at    2  2
       a =  1.650      CL =  0.2287
      Cm = -0.0518     CD =  0.04248   =>   CDf =  0.00875    CDp =  0.03372

 Side 1  free  transition at x/c =  0.7975   69
 Side 2 forced transition at x/c =  1.0000   80

   3   rms: 0.2546E-02   max: 0.3891E-01   D at    2  1
       a =  1.650      CL =  0.2287
      Cm = -0.0518     CD =  0.04248   =>   CDf =  0.00875    CDp =  0.03373

 Side 1  free  transition at x/c =  0.7975   69
 Side 2 forced transition at x/c =  1.0000   80
 idif Ue xi dudx           1  0.13094766      1.90591812E-03   68.705818    
 Uenew xinew           2  7.37133450E-05  1.07288361E-06

   4   rms: 0.8358E-03   max: 0.1170E-01   D at    4  1
       a =  1.650      CL =  0.2287
      Cm = -0.0518     CD =  0.04248   =>   CDf =  0.00877    CDp =  0.03372

 Side 1  free  transition at x/c =  0.7975   68
 Side 2 forced transition at x/c =  1.0000   81

   5   rms: 0.5038E-02   max: 0.9145E-01   D at    2  2
       a =  1.650      CL =  0.2287
      Cm = -0.0518     CD =  0.04248   =>   CDf =  0.00874    CDp =  0.03374

 Side 1  free  transition at x/c =  0.7975   68
 Side 2 forced transition at x/c =  1.0000   81

   6   rms: 0.4773E-03   max: 0.6008E-02   D at    4  2
       a =  1.650      CL =  0.2287
      Cm = -0.0518     CD =  0.04248   =>   CDf =  0.00876    CDp =  0.03373

 Side 1  free  transition at x/c =  0.7975   69
 Side 2 forced transition at x/c =  1.0000   80

   7   rms: 0.1485E-02   max: -.2685E-01   D at    2  1
       a =  1.650      CL =  0.2287
      Cm = -0.0518     CD =  0.04248   =>   CDf =  0.00875    CDp =  0.03373

 Side 1  free  transition at x/c =  0.7975   69
 Side 2 forced transition at x/c =  1.0000   80

   8   rms: 0.1762E-02   max: -.3121E-01   T at    2  1
       a =  1.650      CL =  0.2287
      Cm = -0.0518     CD =  0.04248   =>   CDf =  0.00875    CDp =  0.03373

 Side 1  free  transition at x/c =  0.7975   69
 Side 2 forced transition at x/c =  1.0000   80

   9   rms: 0.1324E-02   max: -.2328E-01   D at    2  1
       a =  1.650      CL =  0.2287
      Cm = -0.0518     CD =  0.04248   =>   CDf =  0.00875    CDp =  0.03373

 Side 1  free  transition at x/c =  0.7975   69
 Side 2 forced transition at x/c =  1.0000   80

  10   rms: 0.3045E-03   max: 0.4195E-02   T at    2  1
       a =  1.650      CL =  0.2287
      Cm = -0.0518     CD =  0.04248   =>   CDf =  0.00875    CDp =  0.03373
 VISCAL:  Convergence failed

.OPERva   c>  
.OPERva   c>  
.OPERva   c>   Calculating wake trajectory ...
 Calculating source influence matrix ...

 Solving BL system ...

 Side 1  free  transition at x/c =  0.7975   69
 Side 2 forced transition at x/c =  1.0000   80

   1   rms: 0.3444E+00   max: -.6185E+01   T at    2  1   RLX: 0.081
       a =  1.700      CL =  0.2293
      Cm = -0.0519     CD =  0.04248   =>   CDf =  0.00875    CDp =  0.03374

 Side 1  free  transition at x/c =  0.7974   69
 Side 2 forced transition at x/c =  1.0000   80

   2   rms: 0.2518E+00   max: -.4579E+01   D at    2  1   RLX: 0.109
       a =  1.700      CL =  0.2300
      Cm = -0.0519     CD =  0.04249   =>   CDf =  0.00875    CDp =  0.03374

 Side 1  free  transition at x/c =  0.7973   69
 Side 2 forced transition at x/c =  1.0000   80

   3   rms: 0.1640E+00   max: 0.3011E+01   T at    2  1   RLX: 0.498
       a =  1.700      CL =  0.2332
      Cm = -0.0521     CD =  0.04251   =>   CDf =  0.00875    CDp =  0.03376

 Side 1  free  transition at x/c =  0.7968   69
 Side 2 forced transition at x/c =  1.0000   80

   4   rms: 0.1031E-01   max: 0.1250E+00   D at    4  1
       a =  1.700      CL =  0.2369
      Cm = -0.0524     CD =  0.04252   =>   CDf =  0.00876    CDp =  0.03377

 Side 1  free  transition at x/c =  0.7963   69
 Side 2 forced transition at x/c =  1.0000   80

   5   rms: 0.3007E-03   max: 0.2904E-02   D at    7  1
       a =  1.700      CL =  0.2371
      Cm = -0.0525     CD =  0.04253   =>   CDf =  0.00876    CDp =  0.03376

 Side 1  free  transition at x/c =  0.7963   69
 Side 2 forced transition at x/c =  1.0000   80

   6   rms: 0.3817E-05   max: -.2195E-04   D at   88  2
       a =  1.700      CL =  0.2371
      Cm = -0.0525     CD =  0.04253   =>   CDf =  0.00877    CDp =  0.03376
 plradd ia,ip,cpol           34          81  0.24290843    

 Point added to stored polar  1
 Save file unspecified or not available
 Dump file unspecified or not available

.OPERva   c>  
.OPERva   c>  
.OPERva   c>   Calculating wake trajectory ...
 Calculating source influence matrix ...

 Solving BL system ...

 Side 1  free  transition at x/c =  0.7963   69
 Side 2 forced transition at x/c =  1.0000   80

   1   rms: 0.1593E-01   max: -.1224E+00   D at    3  1   RLX: 0.902
       a =  1.750      CL =  0.2462
      Cm = -0.0532     CD =  0.04256   =>   CDf =  0.00877    CDp =  0.03380

 Side 1  free  transition at x/c =  0.7953   68
 Side 2 forced transition at x/c =  1.0000   80

   2   rms: 0.1579E-01   max: -.5754E-01   C at   80  2
       a =  1.750      CL =  0.2284
      Cm = -0.0507     CD =  0.04269   =>   CDf =  0.00879    CDp =  0.03391

 Side 1  free  transition at x/c =  0.7941   68
 Side 2 forced transition at x/c =  1.0000   80

   3   rms: 0.3921E-02   max: 0.1631E-01   C at   80  2
       a =  1.750      CL =  0.2328
      Cm = -0.0513     CD =  0.04258   =>   CDf =  0.00876    CDp =  0.03382

 Side 1  free  transition at x/c =  0.7943   68
 Side 2 forced transition at x/c =  1.0000   80

   4   rms: 0.2210E-03   max: -.6322E-03   D at   88  2
       a =  1.750      CL =  0.2330
      Cm = -0.0514     CD =  0.04259   =>   CDf =  0.00877    CDp =  0.03383

 Side 1  free  transition at x/c =  0.7943   68
 Side 2 forced transition at x/c =  1.0000   80

   5   rms: 0.6115E-05   max: -.4552E-04   C at   80  2
       a =  1.750      CL =  0.2330
      Cm = -0.0514     CD =  0.04259   =>   CDf =  0.00877    CDp =  0.03383
 plradd ia,ip,cpol           35          81  0.24290843    

 Point added to stored polar  1
 Save file unspecified or not available
 Dump file unspecified or not available

.OPERva   c>  
.OPERva   c>  
.OPERva   c>   Calculating wake trajectory ...
 Calculating source influence matrix ...

 Solving BL system ...

 Side 1  free  transition at x/c =  0.7943   68
 Side 2 forced transition at x/c =  1.0000   80
 idif Ue xi dudx           1  0.14146444      1.96480751E-03   71.999138    
 Uenew xinew           2  4.31723194E-03  5.99622726E-05

   1   rms: 0.2542E-01   max: -.1370E+00   C at   80  2   RLX: 0.832
       a =  1.800      CL =  0.2116
      Cm = -0.0480     CD =  0.04271   =>   CDf =  0.00879    CDp =  0.03392

 Side 1  free  transition at x/c =  0.7916   67
 Side 2 forced transition at x/c =  1.0000   81

   2   rms: 0.5877E-02   max: -.3799E-01   T at    2  2
       a =  1.800      CL =  0.2172
      Cm = -0.0487     CD =  0.04262   =>   CDf =  0.00876    CDp =  0.03386

 Side 1  free  transition at x/c =  0.7915   68
 Side 2 forced transition at x/c =  1.0000   80

   3   rms: 0.3139E-03   max: -.3851E-02   D at    3  2
       a =  1.800      CL =  0.2173
      Cm = -0.0487     CD =  0.04264   =>   CDf =  0.00875    CDp =  0.03388

 Side 1  free  transition at x/c =  0.7915   68
 Side 2 forced transition at x/c =  1.0000   80

   4   rms: 0.4652E-03   max: 0.6575E-02   D at    4  1
       a =  1.800      CL =  0.2173
      Cm = -0.0487     CD =  0.04264   =>   CDf =  0.00876    CDp =  0.03388

 Side 1  free  transition at x/c =  0.7915   68
 Side 2 forced transition at x/c =  1.0000   80

   5   rms: 0.4069E-05   max: -.6181E-04   D at    4  1
       a =  1.800      CL =  0.2173
      Cm = -0.0487     CD =  0.04264   =>   CDf =  0.00876    CDp =  0.03388
 plradd ia,ip,cpol           36          81  0.21225892    

 Point added to stored polar  1
 Save file unspecified or not available
 Dump file unspecified or not available

.OPERva   c>  
.OPERva   c>  
.OPERva   c>   Calculating wake trajectory ...
 Calculating source influence matrix ...

 Solving BL system ...

 Side 1  free  transition at x/c =  0.7915   68
 Side 2 forced transition at x/c =  1.0000   80

   1   rms: 0.1187E-01   max: -.9705E-01   C at   80  2   RLX: 0.826
       a =  1.850      CL =  0.2101
      Cm = -0.0474     CD =  0.04271   =>   CDf =  0.00876    CDp =  0.03396

 Side 1  free  transition at x/c =  0.7896   68
 Side 2 forced transition at x/c =  1.0000   80

   2   rms: 0.1756E-02   max: 0.1207E-01   D at    3  1
       a =  1.850      CL =  0.2110
      Cm = -0.0474     CD =  0.04268   =>   CDf =  0.00875    CDp =  0.03393

 Side 1  free  transition at x/c =  0.7893   68
 Side 2 forced transition at x/c =  1.0000   80

   3   rms: 0.2806E-04   max: -.1242E-03   D at    4  1
       a =  1.850      CL =  0.2110
      Cm = -0.0474     CD =  0.04268   =>   CDf =  0.00875    CDp =  0.03393
 plradd ia,ip,cpol           37          81  0.22758298    

 Point added to stored polar  1
 Save file unspecified or not available
 Dump file unspecified or not available

.OPERva   c>  
.OPERva   c>  
.OPERva   c>   Calculating wake trajectory ...
 Calculating source influence matrix ...

 Solving BL system ...

 Side 1  free  transition at x/c =  0.7893   68
 Side 2 forced transition at x/c =  1.0000   80

   1   rms: 0.9049E-02   max: -.8840E-01   C at   80  2   RLX: 0.816
       a =  1.900      CL =  0.2079
      Cm = -0.0466     CD =  0.04275   =>   CDf =  0.00875    CDp =  0.03399

 Side 1  free  transition at x/c =  0.7876   68
 Side 2 forced transition at x/c =  1.0000   80

   2   rms: 0.1628E-02   max: -.1057E-01   C at   80  2
       a =  1.900      CL =  0.2086
      Cm = -0.0466     CD =  0.04271   =>   CDf =  0.00876    CDp =  0.03396

 Side 1  free  transition at x/c =  0.7872   68
 Side 2 forced transition at x/c =  1.0000   80

   3   rms: 0.1643E-04   max: 0.9499E-04   C at   80  2
       a =  1.900      CL =  0.2086
      Cm = -0.0466     CD =  0.04271   =>   CDf =  0.00876    CDp =  0.03395
 plradd ia,ip,cpol           38          81  0.21225892    

 Point added to stored polar  1
 Save file unspecified or not available
 Dump file unspecified or not available

.OPERva   c>  
.OPERva   c>  
.OPERva   c>   Calculating wake trajectory ...
 Calculating source influence matrix ...

 Solving BL system ...

 Side 1  free  transition at x/c =  0.7872   68
 Side 2 forced transition at x/c =  1.0000   80
 idif Ue xi dudx           1  0.12640221      1.91712379E-03   65.933258    
 Uenew xinew           2  8.09565245E-04  1.22785568E-05

   1   rms: 0.1416E-01   max: -.1596E+00   D at    3  1   RLX: 0.808
       a =  1.950      CL =  0.2078
      Cm = -0.0461     CD =  0.04277   =>   CDf =  0.00878    CDp =  0.03399

 Side 1  free  transition at x/c =  0.7859   67
 Side 2 forced transition at x/c =  1.0000   81

   2   rms: 0.4664E-02   max: -.6271E-01   D at    2  2
       a =  1.950      CL =  0.2085
      Cm = -0.0461     CD =  0.04275   =>   CDf =  0.00876    CDp =  0.03399

 Side 1  free  transition at x/c =  0.7856   67
 Side 2 forced transition at x/c =  1.0000   81

   3   rms: 0.1278E-03   max: -.1757E-02   D at    4  2
       a =  1.950      CL =  0.2085
      Cm = -0.0461     CD =  0.04275   =>   CDf =  0.00876    CDp =  0.03399

 Side 1  free  transition at x/c =  0.7856   67
 Side 2 forced transition at x/c =  1.0000   81

   4   rms: 0.1230E-04   max: -.1628E-03   D at    4  2
       a =  1.950      CL =  0.2085
      Cm = -0.0461     CD =  0.04275   =>   CDf =  0.00876    CDp =  0.03399
 plradd ia,ip,cpol           39          80  0.21225892    

 Point added to stored polar  1
 Save file unspecified or not available
 Dump file unspecified or not available

.OPERva   c>  
.OPERva   c>  
.OPERva   c>   Calculating wake trajectory ...
 Calculating source influence matrix ...

 Solving BL system ...

 Side 1  free  transition at x/c =  0.7856   67
 Side 2 forced transition at x/c =  1.0000   81

   1   rms: 0.1300E-01   max: -.1077E+00   D at    3  2   RLX: 0.804
       a =  2.000      CL =  0.2098
      Cm = -0.0459     CD =  0.04280   =>   CDf =  0.00877    CDp =  0.03403

 Side 1  free  transition at x/c =  0.7842   68
 Side 2 forced transition at x/c =  1.0000   80

   2   rms: 0.3958E-02   max: 0.4050E-01   D at    3  1
       a =  2.000      CL =  0.2114
      Cm = -0.0460     CD =  0.04278   =>   CDf =  0.00877    CDp =  0.03401

 Side 1  free  transition at x/c =  0.7839   68
 Side 2 forced transition at x/c =  1.0000   80

   3   rms: 0.2340E-03   max: 0.2945E-02   D at    4  1
       a =  2.000      CL =  0.2114
      Cm = -0.0460     CD =  0.04279   =>   CDf =  0.00878    CDp =  0.03401

 Side 1  free  transition at x/c =  0.7839   68
 Side 2 forced transition at x/c =  1.0000   80

   4   rms: 0.3350E-05   max: -.4138E-04   C at   80  2
       a =  2.000      CL =  0.2114
      Cm = -0.0460     CD =  0.04279   =>   CDf =  0.00878    CDp =  0.03401
 plradd ia,ip,cpol           40          81  0.21225892    

 Point added to stored polar  1
 Save file unspecified or not available
 Dump file unspecified or not available

.OPERva   c>  
.OPERva   c>  
.OPERva   c>   Calculating wake trajectory ...
 Calculating source influence matrix ...

 Solving BL system ...

 Side 1  free  transition at x/c =  0.7839   68
 Side 2 forced transition at x/c =  1.0000   80

   1   rms: 0.1167E-01   max: 0.7559E-01   D at    5  1   RLX: 0.803
       a =  2.050      CL =  0.2149
      Cm = -0.0461     CD =  0.04283   =>   CDf =  0.00878    CDp =  0.03406

 Side 1  free  transition at x/c =  0.7826   68
 Side 2 forced transition at x/c =  1.0000   80

   2   rms: 0.2618E-02   max: -.6784E-02   C at   80  2
       a =  2.050      CL =  0.2168
      Cm = -0.0462     CD =  0.04283   =>   CDf =  0.00879    CDp =  0.03405

 Side 1  free  transition at x/c =  0.7823   68
 Side 2 forced transition at x/c =  1.0000   80

   3   rms: 0.4283E-04   max: 0.1987E-03   C at   80  2
       a =  2.050      CL =  0.2169
      Cm = -0.0462     CD =  0.04284   =>   CDf =  0.00879    CDp =  0.03404
 plradd ia,ip,cpol           41          81  0.21225892    

 Point added to stored polar  1
 Save file unspecified or not available
 Dump file unspecified or not available

.OPERva   c>  
.OPERva   c>  
.OPERva   c>   Calculating wake trajectory ...
 Calculating source influence matrix ...

 Solving BL system ...

 Side 1  free  transition at x/c =  0.7823   68
 Side 2 forced transition at x/c =  1.0000   80

   1   rms: 0.1497E-01   max: -.1630E+00   D at    3  1   RLX: 0.804
       a =  2.100      CL =  0.2214
      Cm = -0.0464     CD =  0.04290   =>   CDf =  0.00879    CDp =  0.03411

 Side 1  free  transition at x/c =  0.7812   68
 Side 2 forced transition at x/c =  1.0000   80

   2   rms: 0.3376E-02   max: -.3181E-01   D at    3  1
       a =  2.100      CL =  0.2234
      Cm = -0.0466     CD =  0.04290   =>   CDf =  0.00881    CDp =  0.03410

 Side 1  free  transition at x/c =  0.7810   68
 Side 2 forced transition at x/c =  1.0000   80

   3   rms: 0.5181E-04   max: 0.2189E-03   C at   80  2
       a =  2.100      CL =  0.2235
      Cm = -0.0466     CD =  0.04291   =>   CDf =  0.00881    CDp =  0.03410
 plradd ia,ip,cpol           42          81  0.21225892    

 Point added to stored polar  1
 Save file unspecified or not available
 Dump file unspecified or not available

.OPERva   c>  
.OPERva   c>  
.OPERva   c>   Calculating wake trajectory ...
 Calculating source influence matrix ...

 Solving BL system ...

 Side 1  free  transition at x/c =  0.7810   68
 Side 2 forced transition at x/c =  1.0000   80

   1   rms: 0.1479E-01   max: 0.1000E+00   D at    3  1   RLX: 0.810
       a =  2.150      CL =  0.2318
      Cm = -0.0473     CD =  0.04294   =>   CDf =  0.00881    CDp =  0.03413

 Side 1  free  transition at x/c =  0.7797   68
 Side 2 forced transition at x/c =  1.0000   80

   2   rms: 0.3577E-02   max: -.5028E-02   D at   91  2
       a =  2.150      CL =  0.2350
      Cm = -0.0476     CD =  0.04295   =>   CDf =  0.00882    CDp =  0.03413

 Side 1  free  transition at x/c =  0.7795   68
 Side 2 forced transition at x/c =  1.0000   80

   3   rms: 0.8256E-04   max: -.2923E-03   D at   89  2
       a =  2.150      CL =  0.2351
      Cm = -0.0476     CD =  0.04297   =>   CDf =  0.00883    CDp =  0.03414
 plradd ia,ip,cpol           43          81  0.21225892    

 Point added to stored polar  1
 Save file unspecified or not available
 Dump file unspecified or not available

.OPERva   c>  
.OPERva   c>  
.OPERva   c>   Calculating wake trajectory ...
 Calculating source influence matrix ...

 Solving BL system ...

 Side 1  free  transition at x/c =  0.7795   68
 Side 2 forced transition at x/c =  1.0000   80

   1   rms: 0.1480E-01   max: -.7370E-01   D at    5  2   RLX: 0.819
       a =  2.200      CL =  0.2440
      Cm = -0.0484     CD =  0.04302   =>   CDf =  0.00883    CDp =  0.03419

 Side 1  free  transition at x/c =  0.7786   67
 Side 2 forced transition at x/c =  1.0000   80

   2   rms: 0.1226E-01   max: -.8631E-01   C at   80  2
       a =  2.200      CL =  0.2315
      Cm = -0.0468     CD =  0.04315   =>   CDf =  0.00885    CDp =  0.03430

 Side 1  free  transition at x/c =  0.7775   67
 Side 2 forced transition at x/c =  1.0000   80

   3   rms: 0.3005E-02   max: 0.2342E-01   C at   80  2
       a =  2.200      CL =  0.2346
      Cm = -0.0471     CD =  0.04307   =>   CDf =  0.00884    CDp =  0.03423

 Side 1  free  transition at x/c =  0.7776   67
 Side 2 forced transition at x/c =  1.0000   80

   4   rms: 0.1587E-03   max: 0.4809E-03   C at   80  2
       a =  2.200      CL =  0.2348
      Cm = -0.0472     CD =  0.04308   =>   CDf =  0.00884    CDp =  0.03424

 Side 1  free  transition at x/c =  0.7776   67
 Side 2 forced transition at x/c =  1.0000   80

   5   rms: 0.7660E-05   max: -.2117E-04   D at   92  2
       a =  2.200      CL =  0.2348
      Cm = -0.0472     CD =  0.04308   =>   CDf =  0.00884    CDp =  0.03424
 plradd ia,ip,cpol           44          81  0.21225892    

 Point added to stored polar  1
 Save file unspecified or not available
 Dump file unspecified or not available

.OPERva   c>  
.OPERva   c>  
.OPERva   c>   Calculating wake trajectory ...
 Calculating source influence matrix ...

 Solving BL system ...

 Side 1  free  transition at x/c =  0.7776   67
 Side 2 forced transition at x/c =  1.0000   80

   1   rms: 0.2130E-01   max: -.1991E+00   C at   80  2   RLX: 0.774
       a =  2.250      CL =  0.2207
      Cm = -0.0452     CD =  0.04328   =>   CDf =  0.00884    CDp =  0.03444

 Side 1  free  transition at x/c =  0.7753   67
 Side 2 forced transition at x/c =  1.0000   80

   2   rms: 0.4483E-02   max: 0.1954E-01   C at   80  2
       a =  2.250      CL =  0.2250
      Cm = -0.0456     CD =  0.04321   =>   CDf =  0.00883    CDp =  0.03438

 Side 1  free  transition at x/c =  0.7750   67
 Side 2 forced transition at x/c =  1.0000   80

   3   rms: 0.9647E-04   max: -.3722E-03   D at   88  2
       a =  2.250      CL =  0.2251
      Cm = -0.0456     CD =  0.04323   =>   CDf =  0.00884    CDp =  0.03439
 plradd ia,ip,cpol           45          81  0.21225892    

 Point added to stored polar  1
 Save file unspecified or not available
 Dump file unspecified or not available

.OPERva   c>  
.OPERva   c>  
.OPERva   c>   Calculating wake trajectory ...
 Calculating source influence matrix ...

 Solving BL system ...

 Side 1  free  transition at x/c =  0.7750   67
 Side 2 forced transition at x/c =  1.0000   80

   1   rms: 0.1719E-01   max: -.2230E+00   D at    3  1   RLX: 0.772
       a =  2.300      CL =  0.2222
      Cm = -0.0450     CD =  0.04337   =>   CDf =  0.00884    CDp =  0.03454

 Side 1  free  transition at x/c =  0.7732   67
 Side 2 forced transition at x/c =  1.0000   80

   2   rms: 0.4397E-02   max: -.5746E-01   D at    3  1
       a =  2.300      CL =  0.2236
      Cm = -0.0451     CD =  0.04336   =>   CDf =  0.00884    CDp =  0.03452

 Side 1  free  transition at x/c =  0.7727   67
 Side 2 forced transition at x/c =  1.0000   80

   3   rms: 0.6212E-04   max: 0.3694E-03   C at   80  2
       a =  2.300      CL =  0.2237
      Cm = -0.0451     CD =  0.04336   =>   CDf =  0.00884    CDp =  0.03452
 plradd ia,ip,cpol           46          81  0.21225892    

 Point added to stored polar  1
 Save file unspecified or not available
 Dump file unspecified or not available

.OPERva   c>  
.OPERva   c>  
.OPERva   c>   Calculating wake trajectory ...
 Calculating source influence matrix ...

 Solving BL system ...

 Side 1  free  transition at x/c =  0.7727   67
 Side 2 forced transition at x/c =  1.0000   80

   1   rms: 0.1054E-01   max: -.9020E-01   C at   80  2   RLX: 0.769
       a =  2.350      CL =  0.2244
      Cm = -0.0450     CD =  0.04349   =>   CDf =  0.00884    CDp =  0.03464

 Side 1  free  transition at x/c =  0.7710   67
 Side 2 forced transition at x/c =  1.0000   80

   2   rms: 0.2722E-02   max: -.2052E-01   D at    3  2
       a =  2.350      CL =  0.2261
      Cm = -0.0451     CD =  0.04348   =>   CDf =  0.00885    CDp =  0.03463

 Side 1  free  transition at x/c =  0.7706   67
 Side 2 forced transition at x/c =  1.0000   80

   3   rms: 0.4664E-04   max: 0.3494E-03   C at   80  2
       a =  2.350      CL =  0.2261
      Cm = -0.0451     CD =  0.04348   =>   CDf =  0.00885    CDp =  0.03463
 plradd ia,ip,cpol           47          81  0.21225892    

 Point added to stored polar  1
 Save file unspecified or not available
 Dump file unspecified or not available

.OPERva   c>  
.OPERva   c>  
.OPERva   c>   Calculating wake trajectory ...
 Calculating source influence matrix ...

 Solving BL system ...

 Side 1  free  transition at x/c =  0.7706   67
 Side 2 forced transition at x/c =  1.0000   80

   1   rms: 0.1732E-01   max: 0.1625E+00   D at    3  2   RLX: 0.768
       a =  2.400      CL =  0.2293
      Cm = -0.0453     CD =  0.04359   =>   CDf =  0.00885    CDp =  0.03474

 Side 1  free  transition at x/c =  0.7691   67
 Side 2 forced transition at x/c =  1.0000   80

   2   rms: 0.3905E-02   max: 0.3756E-01   D at    3  2
       a =  2.400      CL =  0.2312
      Cm = -0.0454     CD =  0.04360   =>   CDf =  0.00886    CDp =  0.03474

 Side 1  free  transition at x/c =  0.7687   67
 Side 2 forced transition at x/c =  1.0000   80

   3   rms: 0.4471E-04   max: 0.3061E-03   C at   80  2
       a =  2.400      CL =  0.2312
      Cm = -0.0454     CD =  0.04360   =>   CDf =  0.00886    CDp =  0.03474
 plradd ia,ip,cpol           48          81  0.21225892    

 Point added to stored polar  1
 Save file unspecified or not available
 Dump file unspecified or not available

.OPERva   c>  
.OPERva   c>  
.OPERva   c>   Calculating wake trajectory ...
 Calculating source influence matrix ...

 Solving BL system ...

 Side 1  free  transition at x/c =  0.7687   67
 Side 2 forced transition at x/c =  1.0000   80

   1   rms: 0.1079E-01   max: -.7093E-01   D at    6  1   RLX: 0.770
       a =  2.450      CL =  0.2362
      Cm = -0.0458     CD =  0.04370   =>   CDf =  0.00886    CDp =  0.03483

 Side 1  free  transition at x/c =  0.7673   67
 Side 2 forced transition at x/c =  1.0000   80

   2   rms: 0.3020E-02   max: -.7213E-02   C at   80  2
       a =  2.450      CL =  0.2386
      Cm = -0.0460     CD =  0.04370   =>   CDf =  0.00887    CDp =  0.03483

 Side 1  free  transition at x/c =  0.7669   67
 Side 2 forced transition at x/c =  1.0000   80

   3   rms: 0.7312E-04   max: 0.3277E-03   C at   80  2
       a =  2.450      CL =  0.2387
      Cm = -0.0460     CD =  0.04370   =>   CDf =  0.00888    CDp =  0.03483
 plradd ia,ip,cpol           49          81  0.19712920    

 Point added to stored polar  1
 Save file unspecified or not available
 Dump file unspecified or not available

.OPERva   c>  
.OPERva   c>  
.OPERva   c>   Calculating wake trajectory ...
 Calculating source influence matrix ...

 Solving BL system ...

 Side 1  free  transition at x/c =  0.7669   67
 Side 2 forced transition at x/c =  1.0000   80

   1   rms: 0.1138E-01   max: -.5111E-01   C at   80  2   RLX: 0.773
       a =  2.500      CL =  0.2450
      Cm = -0.0465     CD =  0.04379   =>   CDf =  0.00888    CDp =  0.03491

 Side 1  free  transition at x/c =  0.7656   67
 Side 2 forced transition at x/c =  1.0000   80

   2   rms: 0.3070E-02   max: -.6590E-02   C at   80  2
       a =  2.500      CL =  0.2476
      Cm = -0.0468     CD =  0.04380   =>   CDf =  0.00889    CDp =  0.03492

 Side 1  free  transition at x/c =  0.7653   67
 Side 2 forced transition at x/c =  1.0000   80

   3   rms: 0.6104E-04   max: 0.2553E-03   C at   80  2
       a =  2.500      CL =  0.2477
      Cm = -0.0468     CD =  0.04381   =>   CDf =  0.00889    CDp =  0.03492
 plradd ia,ip,cpol           50          81  0.19712920    

 Point added to stored polar  1
 Save file unspecified or not available
 Dump file unspecified or not available

.OPERva   c>  
.OPERva   c>  
.OPERva   c>   Calculating wake trajectory ...
 Calculating source influence matrix ...

 Solving BL system ...

 Side 1  free  transition at x/c =  0.7653   67
 Side 2 forced transition at x/c =  1.0000   80

   1   rms: 0.2140E-01   max: -.2298E+00   D at    3  2   RLX: 0.780
       a =  2.550      CL =  0.2558
      Cm = -0.0475     CD =  0.04387   =>   CDf =  0.00889    CDp =  0.03498

 Side 1  free  transition at x/c =  0.7641   67
 Side 2 forced transition at x/c =  1.0000   80

   2   rms: 0.6157E-02   max: -.6950E-01   T at    3  2
       a =  2.550      CL =  0.2588
      Cm = -0.0477     CD =  0.04389   =>   CDf =  0.00891    CDp =  0.03499

 Side 1  free  transition at x/c =  0.7638   67
 Side 2 forced transition at x/c =  1.0000   80

   3   rms: 0.2067E-03   max: -.1992E-02   T at    3  2
       a =  2.550      CL =  0.2589
      Cm = -0.0477     CD =  0.04390   =>   CDf =  0.00891    CDp =  0.03499

 Side 1  free  transition at x/c =  0.7638   67
 Side 2 forced transition at x/c =  1.0000   80

   4   rms: 0.3630E-05   max: -.1886E-04   D at   67  1
       a =  2.550      CL =  0.2589
      Cm = -0.0477     CD =  0.04390   =>   CDf =  0.00891    CDp =  0.03499
 plradd ia,ip,cpol           51          81  0.19712920    

 Point added to stored polar  1
 Save file unspecified or not available
 Dump file unspecified or not available

.OPERva   c>  
.OPERva   c>  
.OPERva   c>   Calculating wake trajectory ...
 Calculating source influence matrix ...

 Solving BL system ...

 Side 1  free  transition at x/c =  0.7638   67
 Side 2 forced transition at x/c =  1.0000   80

   1   rms: 0.1871E-01   max: 0.1673E+00   T at    3  2   RLX: 0.787
       a =  2.600      CL =  0.2678
      Cm = -0.0485     CD =  0.04397   =>   CDf =  0.00891    CDp =  0.03506

 Side 1  free  transition at x/c =  0.7628   67
 Side 2 forced transition at x/c =  1.0000   80

   2   rms: 0.4255E-02   max: 0.3744E-01   D at    3  2
       a =  2.600      CL =  0.2709
      Cm = -0.0488     CD =  0.04399   =>   CDf =  0.00892    CDp =  0.03507

 Side 1  free  transition at x/c =  0.7626   67
 Side 2 forced transition at x/c =  1.0000   80

   3   rms: 0.7741E-04   max: -.2871E-03   D at    4  2
       a =  2.600      CL =  0.2709
      Cm = -0.0488     CD =  0.04400   =>   CDf =  0.00893    CDp =  0.03507
 plradd ia,ip,cpol           52          81  0.19712920    

 Point added to stored polar  1
 Save file unspecified or not available
 Dump file unspecified or not available

.OPERva   c>  
.OPERva   c>  
.OPERva   c>   Calculating wake trajectory ...
 Calculating source influence matrix ...

 Solving BL system ...

 Side 1  free  transition at x/c =  0.7626   67
 Side 2 forced transition at x/c =  1.0000   80

   1   rms: 0.1617E-01   max: -.2089E-01   C at   80  2   RLX: 0.797
       a =  2.650      CL =  0.2817
      Cm = -0.0498     CD =  0.04405   =>   CDf =  0.00889    CDp =  0.03516

 Side 1  free  transition at x/c =  0.7617   67
 Side 2 forced transition at x/c =  1.0000   79
 idif Ue xi dudx           1  0.16311027      1.91199780E-03   85.308815    
 Uenew xinew           2  4.93225735E-03  5.78165054E-05

   2   rms: 0.2129E-01   max: -.1147E+00   C at   79  2
       a =  2.650      CL =  0.2622
      Cm = -0.0477     CD =  0.04445   =>   CDf =  0.00902    CDp =  0.03543

 Side 1  free  transition at x/c =  0.7597   66
 Side 2 forced transition at x/c =  1.0000   80

   3   rms: 0.1910E-01   max: -.3153E+00   T at    2  2
       a =  2.650      CL =  0.2688
      Cm = -0.0483     CD =  0.04419   =>   CDf =  0.00889    CDp =  0.03531

 Side 1  free  transition at x/c =  0.7602   67
 Side 2 forced transition at x/c =  1.0000   79

   4   rms: 0.3456E-02   max: -.4663E-01   D at    3  2
[...]
       a =  7.750      CL =  0.7566
      Cm = -0.0647     CD =  0.06744   =>   CDf =  0.00868    CDp =  0.05876

 Side 1  free  transition at x/c =  0.5497   61
 Side 2 forced transition at x/c =  1.0000   73

   3   rms: 0.7802E-03   max: -.2533E-02   D at   89  2
       a =  7.750      CL =  0.7573
      Cm = -0.0647     CD =  0.06749   =>   CDf =  0.00867    CDp =  0.05882

 Side 1  free  transition at x/c =  0.5497   61
 Side 2 forced transition at x/c =  1.0000   73

   4   rms: 0.6529E-04   max: -.2240E-03   D at   89  2
       a =  7.750      CL =  0.7573
      Cm = -0.0647     CD =  0.06749   =>   CDf =  0.00867    CDp =  0.05883
 plradd ia,ip,cpol          148          88  2.74348781E-02

 Point added to stored polar  1
 Save file unspecified or not available
 Dump file unspecified or not available

.OPERva   c>  
.OPERva   c>  
.OPERva   c>   Calculating wake trajectory ...
 Calculating source influence matrix ...

 Solving BL system ...

 Side 1  free  transition at x/c =  0.5497   61
 Side 2 forced transition at x/c =  1.0000   73

   1   rms: 0.1880E-01   max: -.1999E-01   D at   87  2   RLX: 0.655
       a =  7.800      CL =  0.7673
      Cm = -0.0648     CD =  0.06696   =>   CDf =  0.00867    CDp =  0.05829

 Side 1  free  transition at x/c =  0.5488   61
 Side 2 forced transition at x/c =  1.0000   73

   2   rms: 0.8136E-02   max: -.1253E-01   D at   87  2
       a =  7.800      CL =  0.7742
      Cm = -0.0650     CD =  0.06665   =>   CDf =  0.00865    CDp =  0.05800

 Side 1  free  transition at x/c =  0.5484   61
 Side 2 forced transition at x/c =  1.0000   73

   3   rms: 0.7049E-03   max: -.2309E-02   D at   89  2
       a =  7.800      CL =  0.7748
      Cm = -0.0650     CD =  0.06670   =>   CDf =  0.00864    CDp =  0.05807

 Side 1  free  transition at x/c =  0.5485   61
 Side 2 forced transition at x/c =  1.0000   73

   4   rms: 0.4967E-04   max: -.1647E-03   D at   89  2
       a =  7.800      CL =  0.7749
      Cm = -0.0650     CD =  0.06671   =>   CDf =  0.00863    CDp =  0.05808
 plradd ia,ip,cpol          149          88  2.28841677E-02

 Point added to stored polar  1
 Save file unspecified or not available
 Dump file unspecified or not available

.OPERva   c>  
.OPERva   c>  
.OPERva   c>   Calculating wake trajectory ...
 Calculating source influence matrix ...

 Solving BL system ...

 Side 1  free  transition at x/c =  0.5485   61
 Side 2 forced transition at x/c =  1.0000   73

   1   rms: 0.2006E-01   max: -.2479E-01   D at   87  2   RLX: 0.667
       a =  7.850      CL =  0.7864
      Cm = -0.0651     CD =  0.06603   =>   CDf =  0.00864    CDp =  0.05739

 Side 1  free  transition at x/c =  0.5477   61
 Side 2 forced transition at x/c =  1.0000   73

   2   rms: 0.7633E-02   max: -.1177E-01   D at   86  2
       a =  7.850      CL =  0.7931
      Cm = -0.0652     CD =  0.06575   =>   CDf =  0.00861    CDp =  0.05714

 Side 1  free  transition at x/c =  0.5475   60
 Side 2 forced transition at x/c =  1.0000   73

   3   rms: 0.1173E-01   max: -.4026E-01   T at   60  1
       a =  7.850      CL =  0.8037
      Cm = -0.0655     CD =  0.06482   =>   CDf =  0.00860    CDp =  0.05622

 Side 1  free  transition at x/c =  0.5485   61
 Side 2 forced transition at x/c =  1.0000   73

   4   rms: 0.2036E-01   max: 0.6891E-01   D at   63  1
       a =  7.850      CL =  0.7946
      Cm = -0.0654     CD =  0.06622   =>   CDf =  0.00858    CDp =  0.05764

 Side 1  free  transition at x/c =  0.5474   60
 Side 2 forced transition at x/c =  1.0000   73

   5   rms: 0.1069E-01   max: -.4364E-01   T at   60  1
       a =  7.850      CL =  0.8041
      Cm = -0.0655     CD =  0.06481   =>   CDf =  0.00860    CDp =  0.05621

 Side 1  free  transition at x/c =  0.5486   61
 Side 2 forced transition at x/c =  1.0000   73

   6   rms: 0.2098E-01   max: 0.7085E-01   D at   63  1
       a =  7.850      CL =  0.7945
      Cm = -0.0654     CD =  0.06624   =>   CDf =  0.00858    CDp =  0.05766

 Side 1  free  transition at x/c =  0.5474   60
 Side 2 forced transition at x/c =  1.0000   73

   7   rms: 0.1076E-01   max: -.4397E-01   T at   60  1
       a =  7.850      CL =  0.8041
      Cm = -0.0655     CD =  0.06481   =>   CDf =  0.00860    CDp =  0.05621

 Side 1  free  transition at x/c =  0.5486   61
 Side 2 forced transition at x/c =  1.0000   73

   8   rms: 0.2105E-01   max: 0.7110E-01   D at   63  1
       a =  7.850      CL =  0.7945
      Cm = -0.0654     CD =  0.06624   =>   CDf =  0.00858    CDp =  0.05766

 MRCHDU: Convergence failed at  60  side 1    Res =  0.6396E-04
 Side 1  free  transition at x/c =  0.5474   60
 Side 2 forced transition at x/c =  1.0000   73

   9   rms: 0.1076E-01   max: -.4402E-01   T at   60  1
       a =  7.850      CL =  0.8041
      Cm = -0.0655     CD =  0.06480   =>   CDf =  0.00860    CDp =  0.05621

 Side 1  free  transition at x/c =  0.5486   61
 Side 2 forced transition at x/c =  1.0000   73

  10   rms: 0.2106E-01   max: 0.7114E-01   D at   63  1
       a =  7.850      CL =  0.7945
      Cm = -0.0654     CD =  0.06624   =>   CDf =  0.00858    CDp =  0.05766
 VISCAL:  Convergence failed

.OPERva   c>  
.OPERva   c>  
.OPERva   c>   Calculating wake trajectory ...
 Calculating source influence matrix ...

 Solving BL system ...

 Side 1  free  transition at x/c =  0.5474   60
 Side 2 forced transition at x/c =  1.0000   73

   1   rms: 0.1089E+00   max: -.2055E+00   D at   87  2   RLX: 0.763
       a =  7.900      CL =  0.8689
      Cm = -0.0668     CD =  0.05887   =>   CDf =  0.00819    CDp =  0.05068

 Side 1  free  transition at x/c =  0.5558   62
 Side 2 forced transition at x/c =  1.0000   72
 idif Ue xi dudx           1  0.13778298      3.51023674E-03   39.251762    
 Uenew xinew           2  3.13411132E-02  7.98463821E-04

   2   rms: 0.1698E+00   max: 0.5583E+00   D at   68  1
       a =  7.900      CL =  0.7773
      Cm = -0.0655     CD =  0.07230   =>   CDf =  0.00890    CDp =  0.06340

 Side 1  free  transition at x/c =  0.5441   60
 Side 2 forced transition at x/c =  1.0000   73
 idif Ue xi dudx           1  0.19155845      4.10413742E-03   46.674473    
 Uenew xinew           2  7.44411647E-02  1.59490108E-03

   3   rms: 0.2631E+00   max: 0.8129E+00   T at   60  1   RLX: 0.807
       a =  7.900      CL =  0.5988
      Cm = -0.0604     CD =  0.08582   =>   CDf =  0.00902    CDp =  0.07680

 Side 1  free  transition at x/c =  0.5378   59
 Side 2 forced transition at x/c =  1.0000   74

   4   rms: 0.1540E+00   max: -.3731E+00   D at   91  2
       a =  7.900      CL =  0.7391
      Cm = -0.0628     CD =  0.06677   =>   CDf =  0.00849    CDp =  0.05828

 Side 1  free  transition at x/c =  0.5446   60
 Side 2 forced transition at x/c =  1.0000   73

   5   rms: 0.3777E-01   max: 0.2918E+00   D at   60  1
       a =  7.900      CL =  0.7700
      Cm = -0.0648     CD =  0.06877   =>   CDf =  0.00873    CDp =  0.06004

 Side 1  free  transition at x/c =  0.5420   60
 Side 2 forced transition at x/c =  1.0000   73

   6   rms: 0.2652E-01   max: 0.6776E-01   D at   85  2
       a =  7.900      CL =  0.7480
      Cm = -0.0641     CD =  0.07035   =>   CDf =  0.00862    CDp =  0.06173

 Side 1  free  transition at x/c =  0.5403   60
 Side 2 forced transition at x/c =  1.0000   73

   7   rms: 0.1741E-02   max: -.7214E-02   T at   60  1
       a =  7.900      CL =  0.7493
      Cm = -0.0640     CD =  0.06963   =>   CDf =  0.00865    CDp =  0.06098

 Side 1  free  transition at x/c =  0.5406   60
 Side 2 forced transition at x/c =  1.0000   73

   8   rms: 0.2668E-03   max: -.9157E-03   D at   87  2
       a =  7.900      CL =  0.7495
      Cm = -0.0640     CD =  0.06965   =>   CDf =  0.00865    CDp =  0.06100

 Side 1  free  transition at x/c =  0.5406   60
 Side 2 forced transition at x/c =  1.0000   73

   9   rms: 0.1752E-04   max: -.5876E-04   D at   85  2
       a =  7.900      CL =  0.7496
      Cm = -0.0640     CD =  0.06965   =>   CDf =  0.00865    CDp =  0.06101
 plradd ia,ip,cpol          150          88  2.28841677E-02

 Point added to stored polar  1
 Save file unspecified or not available
 Dump file unspecified or not available

.OPERva   c>  
.OPERva   c>  
.OPERva   c>   Calculating wake trajectory ...
 Calculating source influence matrix ...

 Solving BL system ...

 Side 1  free  transition at x/c =  0.5406   60
 Side 2 forced transition at x/c =  1.0000   73

   1   rms: 0.7820E-02   max: 0.8679E-01   T at   60  1   RLX: 0.622
       a =  7.950      CL =  0.7501
      Cm = -0.0639     CD =  0.07001   =>   CDf =  0.00865    CDp =  0.06136

 Side 1  free  transition at x/c =  0.5388   60
 Side 2 forced transition at x/c =  1.0000   73

   2   rms: 0.4250E-02   max: 0.2462E-01   T at   60  1
       a =  7.950      CL =  0.7531
      Cm = -0.0639     CD =  0.06987   =>   CDf =  0.00864    CDp =  0.06123

 Side 1  free  transition at x/c =  0.5380   60
 Side 2 forced transition at x/c =  1.0000   73

   3   rms: 0.5202E-03   max: -.1510E-02   D at   89  2
       a =  7.950      CL =  0.7535
      Cm = -0.0639     CD =  0.06987   =>   CDf =  0.00863    CDp =  0.06124

 Side 1  free  transition at x/c =  0.5380   60
 Side 2 forced transition at x/c =  1.0000   73

   4   rms: 0.5658E-04   max: -.1928E-03   D at   84  2
       a =  7.950      CL =  0.7536
      Cm = -0.0639     CD =  0.06988   =>   CDf =  0.00863    CDp =  0.06125
 plradd ia,ip,cpol          151          88  2.28841677E-02

 Point added to stored polar  1
 Save file unspecified or not available
 Dump file unspecified or not available

.OPERva   c>  
.OPERva   c>  
.OPERva   c>   Calculating wake trajectory ...
 Calculating source influence matrix ...

 Solving BL system ...

 Side 1  free  transition at x/c =  0.5380   60
 Side 2 forced transition at x/c =  1.0000   73

   1   rms: 0.1037E-01   max: 0.7143E-01   T at   60  1   RLX: 0.626
       a =  8.000      CL =  0.7581
      Cm = -0.0639     CD =  0.06983   =>   CDf =  0.00863    CDp =  0.06119

 Side 1  free  transition at x/c =  0.5365   60
 Side 2 forced transition at x/c =  1.0000   73

   2   rms: 0.5603E-02   max: -.6367E-02   D at   87  2
       a =  8.000      CL =  0.7628
      Cm = -0.0640     CD =  0.06963   =>   CDf =  0.00862    CDp =  0.06101

 Side 1  free  transition at x/c =  0.5359   60
 Side 2 forced transition at x/c =  1.0000   73

   3   rms: 0.6034E-03   max: -.1919E-02   D at   89  2
       a =  8.000      CL =  0.7632
      Cm = -0.0640     CD =  0.06965   =>   CDf =  0.00861    CDp =  0.06104

 Side 1  free  transition at x/c =  0.5359   60
 Side 2 forced transition at x/c =  1.0000   73

   4   rms: 0.5614E-04   max: -.1895E-03   D at   85  2
       a =  8.000      CL =  0.7633
      Cm = -0.0640     CD =  0.06966   =>   CDf =  0.00861    CDp =  0.06105
 plradd ia,ip,cpol          152          88  2.28841677E-02

 Point added to stored polar  1
 Save file unspecified or not available
 Dump file unspecified or not available

.OPERva   c>  
.OPERva   c>  
.OPERva   c>   Calculating wake trajectory ...
 Calculating source influence matrix ...

 Solving BL system ...

 Side 1  free  transition at x/c =  0.5359   60
 Side 2 forced transition at x/c =  1.0000   73

   1   rms: 0.1388E-01   max: -.4999E-01   D at    4  2   RLX: 0.632
       a =  8.050      CL =  0.7703
      Cm = -0.0640     CD =  0.06938   =>   CDf =  0.00861    CDp =  0.06077

 Side 1  free  transition at x/c =  0.5347   60
 Side 2 forced transition at x/c =  1.0000   73

   2   rms: 0.6613E-02   max: -.2041E-01   D at    4  2
       a =  8.050      CL =  0.7758
      Cm = -0.0641     CD =  0.06912   =>   CDf =  0.00859    CDp =  0.06053

 Side 1  free  transition at x/c =  0.5341   60
 Side 2 forced transition at x/c =  1.0000   73

   3   rms: 0.7939E-03   max: -.2517E-02   D at   89  2
       a =  8.050      CL =  0.7764
      Cm = -0.0641     CD =  0.06915   =>   CDf =  0.00858    CDp =  0.06056

 Side 1  free  transition at x/c =  0.5341   60
 Side 2 forced transition at x/c =  1.0000   73

   4   rms: 0.7961E-04   max: -.2685E-03   D at   89  2
       a =  8.050      CL =  0.7765
      Cm = -0.0641     CD =  0.06916   =>   CDf =  0.00858    CDp =  0.06058
 plradd ia,ip,cpol          153          88  2.28841677E-02

 Point added to stored polar  1
 Save file unspecified or not available
 Dump file unspecified or not available

.OPERva   c>  
.OPERva   c>  
.OPERva   c>   Calculating wake trajectory ...
 Calculating source influence matrix ...

 Solving BL system ...

 Side 1  free  transition at x/c =  0.5341   60
 Side 2 forced transition at x/c =  1.0000   73

   1   rms: 0.1660E-01   max: -.1738E-01   D at   87  2   RLX: 0.640
       a =  8.100      CL =  0.7854
      Cm = -0.0641     CD =  0.06867   =>   CDf =  0.00858    CDp =  0.06008

 Side 1  free  transition at x/c =  0.5331   60
 Side 2 forced transition at x/c =  1.0000   73

   2   rms: 0.7874E-02   max: -.1231E-01   D at   88  2
       a =  8.100      CL =  0.7922
      Cm = -0.0642     CD =  0.06832   =>   CDf =  0.00856    CDp =  0.05976

 Side 1  free  transition at x/c =  0.5327   60
 Side 2 forced transition at x/c =  1.0000   73

   3   rms: 0.8431E-03   max: -.2762E-02   D at   89  2
       a =  8.100      CL =  0.7929
      Cm = -0.0642     CD =  0.06837   =>   CDf =  0.00855    CDp =  0.05982

 Side 1  free  transition at x/c =  0.5327   60
 Side 2 forced transition at x/c =  1.0000   73

   4   rms: 0.7177E-04   max: -.2356E-03   D at   89  2
       a =  8.100      CL =  0.7930
      Cm = -0.0642     CD =  0.06838   =>   CDf =  0.00855    CDp =  0.05984
 plradd ia,ip,cpol          154          88  2.28841677E-02

 Point added to stored polar  1
 Save file unspecified or not available
 Dump file unspecified or not available

.OPERva   c>  
.OPERva   c>  
.OPERva   c>   Calculating wake trajectory ...
 Calculating source influence matrix ...

 Solving BL system ...

 Side 1  free  transition at x/c =  0.5327   60
 Side 2 forced transition at x/c =  1.0000   73

   1   rms: 0.1956E-01   max: -.2308E-01   D at   87  2   RLX: 0.651
       a =  8.150      CL =  0.8036
      Cm = -0.0643     CD =  0.06772   =>   CDf =  0.00813    CDp =  0.05958

 Side 1  free  transition at x/c =  0.5319   61
 Side 2 forced transition at x/c =  1.0000   72
 idif Ue xi dudx           1  0.10180498      2.71999836E-03   37.428322    
 Uenew xinew           2  3.07864451E-04  8.22544098E-06

   2   rms: 0.1214E+00   max: -.2194E+01   T at    2  1   RLX: 0.228
       a =  8.150      CL =  0.8052
      Cm = -0.0643     CD =  0.06783   =>   CDf =  0.00892    CDp =  0.05891

 Side 1  free  transition at x/c =  0.5319   60
 Side 2 forced transition at x/c =  1.0000   73

   3   rms: 0.6003E-01   max: 0.1080E+01   T at    2  2
       a =  8.150      CL =  0.8110
      Cm = -0.0644     CD =  0.06736   =>   CDf =  0.00810    CDp =  0.05925

 Side 1  free  transition at x/c =  0.5316   61
 Side 2 forced transition at x/c =  1.0000   72

   4   rms: 0.3275E-01   max: 0.5612E+00   D at    2  1
       a =  8.150      CL =  0.8115
      Cm = -0.0644     CD =  0.06740   =>   CDf =  0.00850    CDp =  0.05890

 Side 1  free  transition at x/c =  0.5316   61
 Side 2 forced transition at x/c =  1.0000   72

   5   rms: 0.3950E-02   max: 0.5192E-01   D at    4  1
       a =  8.150      CL =  0.8115
      Cm = -0.0644     CD =  0.06740   =>   CDf =  0.00849    CDp =  0.05891

 Side 1  free  transition at x/c =  0.5316   61
 Side 2 forced transition at x/c =  1.0000   72

   6   rms: 0.2427E-04   max: 0.3461E-03   D at    6  1
       a =  8.150      CL =  0.8115
      Cm = -0.0644     CD =  0.06741   =>   CDf =  0.00849    CDp =  0.05891
 plradd ia,ip,cpol          155          89  2.28841677E-02

 Point added to stored polar  1
 Save file unspecified or not available
 Dump file unspecified or not available

.OPERva   c>  
.OPERva   c>  
.OPERva   c>   Calculating wake trajectory ...
 Calculating source influence matrix ...

 Solving BL system ...

 Side 1  free  transition at x/c =  0.5316   61
 Side 2 forced transition at x/c =  1.0000   72

   1   rms: 0.2081E-01   max: -.2713E-01   D at   86  2   RLX: 0.663
       a =  8.200      CL =  0.8234
      Cm = -0.0645     CD =  0.06659   =>   CDf =  0.00849    CDp =  0.05810

 Side 1  free  transition at x/c =  0.5310   60
 Side 2 forced transition at x/c =  1.0000   72

   2   rms: 0.3678E-01   max: -.7064E-01   D at   87  2
       a =  8.200      CL =  0.8562
      Cm = -0.0650     CD =  0.06353   =>   CDf =  0.00847    CDp =  0.05506

 Side 1  free  transition at x/c =  0.5339   61
 Side 2 forced transition at x/c =  1.0000   72

   3   rms: 0.5359E-01   max: 0.1796E+00   D at   63  1
       a =  8.200      CL =  0.8292
      Cm = -0.0649     CD =  0.06776   =>   CDf =  0.00841    CDp =  0.05935

 Side 1  free  transition at x/c =  0.5303   60
 Side 2 forced transition at x/c =  1.0000   72

   4   rms: 0.3536E-01   max: -.1284E+00   T at   60  1
       a =  8.200      CL =  0.8607
      Cm = -0.0650     CD =  0.06317   =>   CDf =  0.00845    CDp =  0.05472

 Side 1  free  transition at x/c =  0.5346   61
 Side 2 forced transition at x/c =  1.0000   72

   5   rms: 0.6459E-01   max: 0.2123E+00   D at   66  1
       a =  8.200      CL =  0.8271
      Cm = -0.0649     CD =  0.06821   =>   CDf =  0.00840    CDp =  0.05981

 Side 1  free  transition at x/c =  0.5302   60
 Side 2 forced transition at x/c =  1.0000   72

   6   rms: 0.4150E-01   max: -.1467E+00   T at   60  1
       a =  8.200      CL =  0.8641
      Cm = -0.0651     CD =  0.06280   =>   CDf =  0.00846    CDp =  0.05434

 Side 1  free  transition at x/c =  0.5351   61
 Side 2 forced transition at x/c =  1.0000   72

   7   rms: 0.7423E-01   max: 0.2442E+00   D at   66  1
       a =  8.200      CL =  0.8252
      Cm = -0.0649     CD =  0.06866   =>   CDf =  0.00840    CDp =  0.06027

 Side 1  free  transition at x/c =  0.5300   60
 Side 2 forced transition at x/c =  1.0000   72

   8   rms: 0.4831E-01   max: -.1676E+00   T at   60  1
       a =  8.200      CL =  0.8682
      Cm = -0.0651     CD =  0.06232   =>   CDf =  0.00846    CDp =  0.05386

 Side 1  free  transition at x/c =  0.5359   61
 Side 2 forced transition at x/c =  1.0000   72

   9   rms: 0.8750E-01   max: 0.2871E+00   D at   66  1
       a =  8.200      CL =  0.8214
      Cm = -0.0649     CD =  0.06935   =>   CDf =  0.00839    CDp =  0.06096

 Side 1  free  transition at x/c =  0.5297   60
 Side 2 forced transition at x/c =  1.0000   72

  10   rms: 0.6256E-01   max: -.2080E+00   T at   60  1
       a =  8.200      CL =  0.8773
      Cm = -0.0653     CD =  0.06133   =>   CDf =  0.00846    CDp =  0.05286
 VISCAL:  Convergence failed

.OPERva   c>  
.OPERva   c>  
.OPERva   c>   Calculating wake trajectory ...
 Calculating source influence matrix ...

 Solving BL system ...

 Side 1  free  transition at x/c =  0.5375   61
 Side 2 forced transition at x/c =  1.0000   72

   1   rms: 0.1015E+00   max: 0.3459E+00   D at   63  1   RLX: 0.659
       a =  8.250      CL =  0.8470
      Cm = -0.0650     CD =  0.06509   =>   CDf =  0.00838    CDp =  0.05671

 Side 1  free  transition at x/c =  0.5306   60
 Side 2 forced transition at x/c =  1.0000   72

   2   rms: 0.7044E-01   max: -.1282E+00   D at   86  2
       a =  8.250      CL =  0.9113
      Cm = -0.0658     CD =  0.05868   =>   CDf =  0.00842    CDp =  0.05026

 Side 1  free  transition at x/c =  0.5385   61
 Side 2 forced transition at x/c =  1.0000   72

   3   rms: 0.1771E+00   max: 0.5715E+00   D at   69  1
       a =  8.250      CL =  0.8120
      Cm = -0.0650     CD =  0.07315   =>   CDf =  0.00831    CDp =  0.06483

 Side 1  free  transition at x/c =  0.5269   60
 Side 2 forced transition at x/c =  1.0000   72
 idif Ue xi dudx           3  0.33385542      7.99298286E-03   41.768566    
 Uenew xinew           4  0.22058856      5.28120995E-03

   4   rms: 0.2181E+01   max: 0.6424E+01   T at   60  1   RLX: 0.163
       a =  8.250      CL =  0.5086
