
 ===================================================
  XFOIL Version 6.99
  Copyright (C) 2000   Mark Drela, Harold Youngren

  This software comes with ABSOLUTELY NO WARRANTY,
    subject to the GNU General Public License.

  Caveat computor
 ===================================================

 File  xfoil.def  not found

   QUIT    Exit program

  .OPER    Direct operating point(s)
  .MDES    Complex mapping design routine
  .QDES    Surface speed design routine
  .GDES    Geometry design routine

   SAVE f  Write airfoil to labeled coordinate file
   PSAV f  Write airfoil to plain coordinate file
   ISAV f  Write airfoil to ISES coordinate file
   MSAV f  Write airfoil to MSES coordinate file
   REVE    Reverse written-airfoil node ordering

   LOAD f  Read buffer airfoil from coordinate file
   NACA i  Set NACA 4,5-digit airfoil and buffer airfoil
   INTE    Set buffer airfoil by interpolating two airfoils
   NORM    Buffer airfoil normalization toggle
   XYCM rr Change CM reference location, currently  0.25000 0.00000

   BEND    Display structural properties of current airfoil

   PCOP    Set current-airfoil panel nodes directly from buffer airfoil points
   PANE    Set current-airfoil panel nodes ( 160 ) based on curvature
  .PPAR    Show/change paneling

  .PLOP    Plotting options

   WDEF f  Write  current-settings file
   RDEF f  Reread current-settings file
   NAME s  Specify new airfoil name
   NINC    Increment name version number

   Z       Zoom    | (available in all menus)
   U       Unzoom  | 

 XFOIL   c>  
 Labeled airfoil file.  Name:  SG6040                                          

 Number of input coordinate points:  81
 Counterclockwise ordering
 Max thickness =     0.160016  at x =   0.353
 Max camber    =     0.025156  at x =   0.582

  LE  x,y  =   0.00009  -0.00040  |   Chord =   0.99991
  TE  x,y  =   1.00000   0.00000  |

 Current airfoil nodes set from buffer airfoil nodes (  81 )

 XFOIL   c>  
  F  disk file
  C  current airfoil  SG6040                                          

  Select source of airfoil "0" ( F C ):  
Enter filename   s>  
  Select source of airfoil "1" ( F C ):  
Enter filename   s>  
 airfoil "0":  SG6040                                          
 airfoil "1":  WORTMANN FX 63-137 AIRFOIL                      

Specify interpolating fraction  0...1   r>   Max thickness =     0.154151  at x =   0.352
 Max camber    =     0.032900  at x =   0.568

Enter new airfoil name   s>  
 Result has been placed in buffer airfoil
 Execute PCOP or PANE to set new current airfoil

 XFOIL   c>  
 Sharp trailing edge

 Paneling parameters used...
   Number of panel nodes       160
   Panel bunching parameter    1.000
   TE/LE panel density ratio   0.150
   Refined-area/LE panel density ratio    0.200
   Top    side refined area x/c limits  1.000 1.000
   Bottom side refined area x/c limits  1.000 1.000

 XFOIL   c>  
 XFOIL   c>  
 XFOIL   c>  
.OPERi   c>  
.OPERi   c>  
 Sonic Cp =   -550.04      Sonic Q/Qinf =    26.096


.OPERi   c>  
 M  =    0.0350
 Re =     10000

.OPERv   c>  
 Polar  1 newly created for accumulation
 Airfoil archived with polar: BlendedAirfoil                                  

Enter  polar save filename  OR  <return> for no file   s>  
 Polar save file will NOT be written

Enter  polar dump filename  OR  <return> for no file   s>  
 Polar dump file will NOT be written

 Polar accumulation enabled

.OPERva   c>   Calculating unit vorticity distributions ...
 Calculating wake trajectory ...
 Calculating source influence matrix ...

 Solving BL system ...

 Initializing BL ...
    side            1  ...
 MRCHUE: Inverse mode at  53     Hk =   3.812
 MRCHUE: Inverse mode at  54     Hk =   3.917
 MRCHUE: Inverse mode at  55     Hk =   4.019
 MRCHUE: Inverse mode at  56     Hk =   4.119
 MRCHUE: Inverse mode at  57     Hk =   4.217
 MRCHUE: Inverse mode at  58     Hk =   4.314
 MRCHUE: Inverse mode at  59     Hk =   4.409
 MRCHUE: Inverse mode at  60     Hk =   4.502
 MRCHUE: Inverse mode at  61     Hk =   4.593
 MRCHUE: Inverse mode at  62     Hk =   4.683
 MRCHUE: Inverse mode at  63     Hk =   4.772
 MRCHUE: Inverse mode at  64     Hk =   4.860
 MRCHUE: Inverse mode at  65     Hk =   4.946
 MRCHUE: Convergence failed at  66  side 1    Res =  0.2292E+01
 MRCHUE: Inverse mode at  67     Hk =   5.031
 MRCHUE: Inverse mode at  68     Hk =   5.116
 MRCHUE: Inverse mode at  69     Hk =   5.199
 MRCHUE: Convergence failed at  70  side 1    Res =  0.1434E+01
 MRCHUE: Inverse mode at  71     Hk =   5.281
 MRCHUE: Inverse mode at  72     Hk =   5.361
 MRCHUE: Inverse mode at  73     Hk =   5.440
 MRCHUE: Inverse mode at  74     Hk =   5.518
 MRCHUE: Convergence failed at  75  side 1    Res =  0.1869E+01
 MRCHUE: Inverse mode at  76     Hk =   5.592
 MRCHUE: Inverse mode at  77     Hk =   5.664
 MRCHUE: Convergence failed at  78  side 1    Res =  0.1840E+01
 MRCHUE: Inverse mode at  79     Hk =   5.728
 MRCHUE: Convergence failed at  80  side 1    Res =  0.2251E+01
 MRCHUE: Convergence failed at  81  side 1    Res =  0.2046E+01
 MRCHUE: Convergence failed at  82  side 1    Res =  0.2067E+01
 MRCHUE: Inverse mode at  83     Hk =   5.757
    side            2  ...
 MRCHUE: Inverse mode at  48     Hk =   3.800
 MRCHUE: Inverse mode at  49     Hk =   3.897
 MRCHUE: Inverse mode at  50     Hk =   3.992
 MRCHUE: Inverse mode at  51     Hk =   4.086
 MRCHUE: Inverse mode at  52     Hk =   4.179
 MRCHUE: Inverse mode at  53     Hk =   4.270
 MRCHUE: Inverse mode at  54     Hk =   4.359
 MRCHUE: Inverse mode at  55     Hk =   4.446
 MRCHUE: Convergence failed at  56  side 2    Res =  0.3367E+01
 MRCHUE: Inverse mode at  57     Hk =   4.531
 MRCHUE: Inverse mode at  58     Hk =   4.613
 MRCHUE: Inverse mode at  59     Hk =   4.694
 MRCHUE: Inverse mode at  60     Hk =   4.772
 MRCHUE: Convergence failed at  61  side 2    Res =  0.2656E+01
 MRCHUE: Inverse mode at  62     Hk =   4.848
 MRCHUE: Inverse mode at  63     Hk =   4.922
 MRCHUE: Inverse mode at  64     Hk =   4.995
 MRCHUE: Inverse mode at  65     Hk =   5.066
 MRCHUE: Convergence failed at  65  side 2    Res =  0.3949E+00
 MRCHUE: Inverse mode at  66     Hk =   5.065
 MRCHUE: Inverse mode at  67     Hk =   5.133
 MRCHUE: Inverse mode at  68     Hk =   5.200
 MRCHUE: Inverse mode at  69     Hk =   5.266
 MRCHUE: Inverse mode at  70     Hk =   5.330
 MRCHUE: Inverse mode at  71     Hk =   5.393
 MRCHUE: Convergence failed at  72  side 2    Res =  0.1808E+01
 MRCHUE: Inverse mode at  73     Hk =   5.452
 MRCHUE: Inverse mode at  74     Hk =   5.509
 MRCHUE: Inverse mode at  75     Hk =   5.562
 MRCHUE: Inverse mode at  76     Hk =   5.611
 MRCHUE: Inverse mode at  77     Hk =   5.656
 MRCHUE: Inverse mode at  78     Hk =   5.697
 MRCHUE: Convergence failed at  78  side 2    Res =  0.9478E-03
 MRCHUE: Inverse mode at  79     Hk =   5.721
 MRCHUE: Inverse mode at  81     Hk =   4.941
 MRCHUE: Inverse mode at  82     Hk =   4.375
 MRCHUE: Inverse mode at  83     Hk =   3.949
 MRCHUE: Inverse mode at  84     Hk =   3.614
 MRCHUE: Inverse mode at  85     Hk =   3.340
 MRCHUE: Inverse mode at  86     Hk =   3.113

 MRCHDU: Convergence failed at  75  side 1    Res =  0.6702E+01
 MRCHDU: Convergence failed at  76  side 1    Res =  0.7573E+01
 MRCHDU: Convergence failed at  77  side 1    Res =  0.9040E+01
 MRCHDU: Convergence failed at  78  side 1    Res =  0.5624E+01
 MRCHDU: Convergence failed at  79  side 1    Res =  0.6122E+01
 MRCHDU: Convergence failed at  80  side 1    Res =  0.8094E+01
 MRCHDU: Convergence failed at  81  side 1    Res =  0.1449E+02
 MRCHDU: Convergence failed at  82  side 1    Res =  0.1413E+03
 MRCHDU: Convergence failed at  83  side 1    Res =  0.5403E+02
 MRCHDU: Convergence failed at  65  side 2    Res =  0.2788E+01
 MRCHDU: Convergence failed at  66  side 2    Res =  0.2972E+01
 MRCHDU: Convergence failed at  67  side 2    Res =  0.3143E+01
 MRCHDU: Convergence failed at  68  side 2    Res =  0.3354E+01
 MRCHDU: Convergence failed at  69  side 2    Res =  0.3597E+01
 MRCHDU: Convergence failed at  70  side 2    Res =  0.3902E+01
 MRCHDU: Convergence failed at  71  side 2    Res =  0.4175E+01
 MRCHDU: Convergence failed at  72  side 2    Res =  0.4491E+01
 MRCHDU: Convergence failed at  73  side 2    Res =  0.4765E+01
 MRCHDU: Convergence failed at  74  side 2    Res =  0.5021E+01
 MRCHDU: Convergence failed at  75  side 2    Res =  0.5270E+01
 MRCHDU: Convergence failed at  76  side 2    Res =  0.5528E+01
 MRCHDU: Convergence failed at  77  side 2    Res =  0.5793E+01
 MRCHDU: Convergence failed at  78  side 2    Res =  0.6171E+01
 MRCHDU: Convergence failed at  79  side 2    Res =  0.6055E+01
 Side 1 forced transition at x/c =  1.0000   83
 Side 2 forced transition at x/c =  1.0000   79
 idif Ue xi dudx           2  0.35195711      4.49609756E-03   78.280579    
 Uenew xinew           3  0.20737997      2.64918804E-03

   1   rms: 0.7519E+00   max: 0.4120E+01   D at   87  2   RLX: 0.364
       a =  0.000      CL =  0.3521
      Cm = -0.1027     CD =  0.01985   =>   CDf =  0.02492    CDp = -0.00507

 Side 1 forced transition at x/c =  1.0000   81
 Side 2 forced transition at x/c =  1.0000   81
 idif Ue xi dudx           2  0.35917553      5.23805618E-03   68.570389    
 Uenew xinew           3  0.22267413      3.24738026E-03

   2   rms: 0.4466E+00   max: 0.1550E+01   D at   92  2   RLX: 0.600
       a =  0.000      CL =  0.0336
      Cm = -0.0457     CD =  0.03251   =>   CDf =  0.02392    CDp =  0.00859

 MRCHDU: Convergence failed at  93  side 2    Res =  0.3567E+01
 MRCHDU: Convergence failed at  94  side 2    Res =  0.1194E+01
 Side 1 forced transition at x/c =  1.0000   79
 Side 2 forced transition at x/c =  1.0000   83
 idif Ue xi dudx           1  0.21426195      4.34720516E-03   49.287289    
 Uenew xinew           2  0.10673438      2.16555595E-03

   3   rms: 0.1802E+00   max: 0.6923E+00   D at   92  2
       a =  0.000      CL = -0.1595
      Cm = -0.0096     CD =  0.04922   =>   CDf =  0.02222    CDp =  0.02700

 Side 1 forced transition at x/c =  1.0000   78
 Side 2 forced transition at x/c =  1.0000   84

   4   rms: 0.2019E-01   max: 0.1847E+00   C at   84  2
       a =  0.000      CL = -0.1543
      Cm = -0.0100     CD =  0.05322   =>   CDf =  0.02044    CDp =  0.03278

 Side 1 forced transition at x/c =  1.0000   78
 Side 2 forced transition at x/c =  1.0000   84

   5   rms: 0.1776E-02   max: 0.1175E-01   C at   84  2
       a =  0.000      CL = -0.1525
      Cm = -0.0103     CD =  0.05307   =>   CDf =  0.02025    CDp =  0.03281

 Side 1 forced transition at x/c =  1.0000   78
 Side 2 forced transition at x/c =  1.0000   84

   6   rms: 0.1008E-04   max: 0.6922E-04   D at   86  2
       a =  0.000      CL = -0.1525
      Cm = -0.0103     CD =  0.05307   =>   CDf =  0.02026    CDp =  0.03280
 plradd ia,ip,cpol            1          77  1.44773023E-02

 Point added to stored polar  1
 Save file unspecified or not available
 Dump file unspecified or not available

.OPERva   c>  
.OPERva   c>  
.OPERva   c>   Calculating wake trajectory ...
 Calculating source influence matrix ...

 Solving BL system ...

 Side 1 forced transition at x/c =  1.0000   78
 Side 2 forced transition at x/c =  1.0000   84

   1   rms: 0.6342E-02   max: -.4982E-01   D at    4  1   RLX: 0.644
       a =  0.050      CL = -0.1522
      Cm = -0.0101     CD =  0.05304   =>   CDf =  0.02026    CDp =  0.03278

 Side 1 forced transition at x/c =  1.0000   78
 Side 2 forced transition at x/c =  1.0000   84

   2   rms: 0.2252E-02   max: -.1724E-01   D at    4  1
       a =  0.050      CL = -0.1518
      Cm = -0.0100     CD =  0.05303   =>   CDf =  0.02029    CDp =  0.03273

 Side 1 forced transition at x/c =  1.0000   78
 Side 2 forced transition at x/c =  1.0000   84

   3   rms: 0.2661E-04   max: 0.2320E-03   C at   84  2
       a =  0.050      CL = -0.1518
      Cm = -0.0100     CD =  0.05302   =>   CDf =  0.02031    CDp =  0.03272
 plradd ia,ip,cpol            2          77  1.44773023E-02

 Point added to stored polar  1
 Save file unspecified or not available
 Dump file unspecified or not available

.OPERva   c>  
.OPERva   c>  
.OPERva   c>   Calculating wake trajectory ...
 Calculating source influence matrix ...

 Solving BL system ...

 Side 1 forced transition at x/c =  1.0000   78
 Side 2 forced transition at x/c =  1.0000   84

   1   rms: 0.6165E-02   max: -.4019E-01   C at   84  2   RLX: 0.640
       a =  0.100      CL = -0.1514
      Cm = -0.0099     CD =  0.05300   =>   CDf =  0.02031    CDp =  0.03270

 Side 1 forced transition at x/c =  1.0000   78
 Side 2 forced transition at x/c =  1.0000   84

   2   rms: 0.2281E-02   max: 0.1400E-01   D at    2  1
       a =  0.100      CL = -0.1510
      Cm = -0.0098     CD =  0.05299   =>   CDf =  0.02033    CDp =  0.03265

 Side 1 forced transition at x/c =  1.0000   78
 Side 2 forced transition at x/c =  1.0000   84

   3   rms: 0.2745E-04   max: 0.2329E-03   C at   84  2
       a =  0.100      CL = -0.1510
      Cm = -0.0098     CD =  0.05299   =>   CDf =  0.02035    CDp =  0.03264
 plradd ia,ip,cpol            3          77  1.44773023E-02

 Point added to stored polar  1
 Save file unspecified or not available
 Dump file unspecified or not available

.OPERva   c>  
.OPERva   c>  
.OPERva   c>   Calculating wake trajectory ...
 Calculating source influence matrix ...

 Solving BL system ...

 Side 1 forced transition at x/c =  1.0000   78
 Side 2 forced transition at x/c =  1.0000   84

   1   rms: 0.9317E-02   max: -.1088E+00   D at    3  1   RLX: 0.635
       a =  0.150      CL = -0.1504
      Cm = -0.0096     CD =  0.05297   =>   CDf =  0.02035    CDp =  0.03262

 Side 1 forced transition at x/c =  1.0000   78
 Side 2 forced transition at x/c =  1.0000   84

   2   rms: 0.3523E-02   max: -.4030E-01   D at    3  1
       a =  0.150      CL = -0.1500
      Cm = -0.0096     CD =  0.05296   =>   CDf =  0.02038    CDp =  0.03258

 Side 1 forced transition at x/c =  1.0000   78
 Side 2 forced transition at x/c =  1.0000   84

   3   rms: 0.3340E-04   max: -.2482E-03   D at    4  2
       a =  0.150      CL = -0.1500
      Cm = -0.0096     CD =  0.05296   =>   CDf =  0.02040    CDp =  0.03257
 plradd ia,ip,cpol            4          77  1.44773023E-02

 Point added to stored polar  1
 Save file unspecified or not available
 Dump file unspecified or not available

.OPERva   c>  
.OPERva   c>  
.OPERva   c>   Calculating wake trajectory ...
 Calculating source influence matrix ...

 Solving BL system ...

 Side 1 forced transition at x/c =  1.0000   78
 Side 2 forced transition at x/c =  1.0000   84

   1   rms: 0.5888E-02   max: 0.4316E-01   T at    3  1   RLX: 0.631
       a =  0.200      CL = -0.1494
      Cm = -0.0095     CD =  0.05295   =>   CDf =  0.02040    CDp =  0.03255

 Side 1 forced transition at x/c =  1.0000   78
 Side 2 forced transition at x/c =  1.0000   84

   2   rms: 0.2170E-02   max: 0.1541E-01   D at    3  1
       a =  0.200      CL = -0.1489
      Cm = -0.0094     CD =  0.05294   =>   CDf =  0.02042    CDp =  0.03251

 Side 1 forced transition at x/c =  1.0000   78
 Side 2 forced transition at x/c =  1.0000   84

   3   rms: 0.2747E-04   max: 0.2611E-03   C at   84  2
       a =  0.200      CL = -0.1489
      Cm = -0.0094     CD =  0.05294   =>   CDf =  0.02044    CDp =  0.03249
 plradd ia,ip,cpol            5          77  1.44773023E-02

 Point added to stored polar  1
 Save file unspecified or not available
 Dump file unspecified or not available

.OPERva   c>  
.OPERva   c>  
.OPERva   c>   Calculating wake trajectory ...
 Calculating source influence matrix ...

 Solving BL system ...

 Side 1 forced transition at x/c =  1.0000   78
 Side 2 forced transition at x/c =  1.0000   84

   1   rms: 0.1488E-01   max: 0.1610E+00   D at    3  1   RLX: 0.628
       a =  0.250      CL = -0.1481
      Cm = -0.0093     CD =  0.05293   =>   CDf =  0.02044    CDp =  0.03249

 Side 1 forced transition at x/c =  1.0000   78
 Side 2 forced transition at x/c =  1.0000   84

   2   rms: 0.4546E-02   max: 0.4377E-01   D at    3  1
       a =  0.250      CL = -0.1476
      Cm = -0.0092     CD =  0.05292   =>   CDf =  0.02047    CDp =  0.03245

 Side 1 forced transition at x/c =  1.0000   78
 Side 2 forced transition at x/c =  1.0000   84

   3   rms: 0.8353E-04   max: -.9283E-03   D at    3  1
       a =  0.250      CL = -0.1476
      Cm = -0.0092     CD =  0.05292   =>   CDf =  0.02049    CDp =  0.03243
 plradd ia,ip,cpol            6          77  1.44773023E-02

 Point added to stored polar  1
 Save file unspecified or not available
 Dump file unspecified or not available

.OPERva   c>  
.OPERva   c>  
.OPERva   c>   Calculating wake trajectory ...
 Calculating source influence matrix ...

 Solving BL system ...

 Side 1 forced transition at x/c =  1.0000   78
 Side 2 forced transition at x/c =  1.0000   84

   1   rms: 0.1169E-01   max: 0.1034E+00   T at    2  2   RLX: 0.624
       a =  0.300      CL = -0.1468
      Cm = -0.0091     CD =  0.05292   =>   CDf =  0.02049    CDp =  0.03243

 Side 1 forced transition at x/c =  1.0000   78
 Side 2 forced transition at x/c =  1.0000   84

   2   rms: 0.4959E-02   max: 0.4649E-01   T at    2  1
       a =  0.300      CL = -0.1462
      Cm = -0.0091     CD =  0.05291   =>   CDf =  0.02052    CDp =  0.03239

 Side 1 forced transition at x/c =  1.0000   78
 Side 2 forced transition at x/c =  1.0000   84

   3   rms: 0.9673E-04   max: -.9434E-03   D at    4  2
       a =  0.300      CL = -0.1462
      Cm = -0.0091     CD =  0.05291   =>   CDf =  0.02054    CDp =  0.03237
 plradd ia,ip,cpol            7          77  1.44773023E-02

 Point added to stored polar  1
 Save file unspecified or not available
 Dump file unspecified or not available

.OPERva   c>  
.OPERva   c>  
.OPERva   c>   Calculating wake trajectory ...
 Calculating source influence matrix ...

 Solving BL system ...

 Side 1 forced transition at x/c =  1.0000   78
 Side 2 forced transition at x/c =  1.0000   84

   1   rms: 0.1369E-01   max: -.1261E+00   T at    2  1   RLX: 0.620
       a =  0.350      CL = -0.1453
      Cm = -0.0090     CD =  0.05291   =>   CDf =  0.02054    CDp =  0.03238

 Side 1 forced transition at x/c =  1.0000   78
 Side 2 forced transition at x/c =  1.0000   84

   2   rms: 0.4558E-02   max: 0.4119E-01   D at    3  2
       a =  0.350      CL = -0.1446
      Cm = -0.0090     CD =  0.05291   =>   CDf =  0.02057    CDp =  0.03235

 Side 1 forced transition at x/c =  1.0000   78
 Side 2 forced transition at x/c =  1.0000   84

   3   rms: 0.6546E-04   max: -.5523E-03   D at    4  1
       a =  0.350      CL = -0.1446
      Cm = -0.0090     CD =  0.05291   =>   CDf =  0.02059    CDp =  0.03232
 plradd ia,ip,cpol            8          77  1.76625717E-02

 Point added to stored polar  1
 Save file unspecified or not available
 Dump file unspecified or not available

.OPERva   c>  
.OPERva   c>  
.OPERva   c>   Calculating wake trajectory ...
 Calculating source influence matrix ...

 Solving BL system ...

 Side 1 forced transition at x/c =  1.0000   78
 Side 2 forced transition at x/c =  1.0000   84

   1   rms: 0.1281E-01   max: -.1523E+00   D at    3  2   RLX: 0.617
       a =  0.400      CL = -0.1436
      Cm = -0.0089     CD =  0.05292   =>   CDf =  0.02059    CDp =  0.03233

 Side 1 forced transition at x/c =  1.0000   78
 Side 2 forced transition at x/c =  1.0000   84

   2   rms: 0.5790E-02   max: -.7012E-01   D at    3  2
       a =  0.400      CL = -0.1429
      Cm = -0.0089     CD =  0.05292   =>   CDf =  0.02062    CDp =  0.03230

 Side 1 forced transition at x/c =  1.0000   78
 Side 2 forced transition at x/c =  1.0000   84

   3   rms: 0.1581E-03   max: -.1768E-02   D at    3  2
       a =  0.400      CL = -0.1429
      Cm = -0.0089     CD =  0.05292   =>   CDf =  0.02064    CDp =  0.03228

 Side 1 forced transition at x/c =  1.0000   78
 Side 2 forced transition at x/c =  1.0000   84

   4   rms: 0.1188E-05   max: 0.8382E-05   C at   84  2
       a =  0.400      CL = -0.1429
      Cm = -0.0089     CD =  0.05292   =>   CDf =  0.02064    CDp =  0.03228
 plradd ia,ip,cpol            9          77  1.76625717E-02

 Point added to stored polar  1
 Save file unspecified or not available
 Dump file unspecified or not available

.OPERva   c>  
.OPERva   c>  
.OPERva   c>   Calculating wake trajectory ...
 Calculating source influence matrix ...

 Solving BL system ...

 Side 1 forced transition at x/c =  1.0000   78
 Side 2 forced transition at x/c =  1.0000   84

   1   rms: 0.8413E-02   max: -.9169E-01   D at    3  1   RLX: 0.614
       a =  0.450      CL = -0.1419
      Cm = -0.0088     CD =  0.05293   =>   CDf =  0.02064    CDp =  0.03229

 Side 1 forced transition at x/c =  1.0000   78
 Side 2 forced transition at x/c =  1.0000   84

   2   rms: 0.3344E-02   max: -.3602E-01   D at    3  1
       a =  0.450      CL = -0.1411
      Cm = -0.0088     CD =  0.05293   =>   CDf =  0.02067    CDp =  0.03226

 Side 1 forced transition at x/c =  1.0000   78
 Side 2 forced transition at x/c =  1.0000   84

   3   rms: 0.3015E-04   max: -.1916E-03   D at    4  1
       a =  0.450      CL = -0.1411
      Cm = -0.0088     CD =  0.05293   =>   CDf =  0.02069    CDp =  0.03224
 plradd ia,ip,cpol           10          77  3.56116816E-02

 Point added to stored polar  1
 Save file unspecified or not available
 Dump file unspecified or not available

.OPERva   c>  
.OPERva   c>  
.OPERva   c>   Calculating wake trajectory ...
 Calculating source influence matrix ...

 Solving BL system ...

 Side 1 forced transition at x/c =  1.0000   78
 Side 2 forced transition at x/c =  1.0000   84

   1   rms: 0.1697E-01   max: 0.1630E+00   D at    3  1   RLX: 0.611
       a =  0.500      CL = -0.1400
      Cm = -0.0088     CD =  0.05295   =>   CDf =  0.02069    CDp =  0.03226

 Side 1 forced transition at x/c =  1.0000   78
 Side 2 forced transition at x/c =  1.0000   84

   2   rms: 0.5472E-02   max: 0.5046E-01   D at    3  1
       a =  0.500      CL = -0.1392
      Cm = -0.0087     CD =  0.05295   =>   CDf =  0.02072    CDp =  0.03223

 Side 1 forced transition at x/c =  1.0000   78
 Side 2 forced transition at x/c =  1.0000   84

   3   rms: 0.9819E-04   max: -.7856E-03   D at    4  2
       a =  0.500      CL = -0.1392
      Cm = -0.0087     CD =  0.05295   =>   CDf =  0.02074    CDp =  0.03221
 plradd ia,ip,cpol           11          77  3.56116816E-02

 Point added to stored polar  1
 Save file unspecified or not available
 Dump file unspecified or not available

.OPERva   c>  
.OPERva   c>  
.OPERva   c>   Calculating wake trajectory ...
 Calculating source influence matrix ...

 Solving BL system ...

 Side 1 forced transition at x/c =  1.0000   78
 Side 2 forced transition at x/c =  1.0000   84

   1   rms: 0.1052E-01   max: 0.8479E-01   T at    2  2   RLX: 0.608
       a =  0.550      CL = -0.1380
      Cm = -0.0087     CD =  0.05297   =>   CDf =  0.02074    CDp =  0.03223

 Side 1 forced transition at x/c =  1.0000   78
 Side 2 forced transition at x/c =  1.0000   84

   2   rms: 0.4558E-02   max: 0.3869E-01   T at    2  2
       a =  0.550      CL = -0.1371
      Cm = -0.0087     CD =  0.05298   =>   CDf =  0.02077    CDp =  0.03220

 Side 1 forced transition at x/c =  1.0000   78
 Side 2 forced transition at x/c =  1.0000   84

   3   rms: 0.8572E-04   max: -.6763E-03   T at    4  2
       a =  0.550      CL = -0.1371
      Cm = -0.0087     CD =  0.05297   =>   CDf =  0.02079    CDp =  0.03218
 plradd ia,ip,cpol           12          77  3.56116816E-02

 Point added to stored polar  1
 Save file unspecified or not available
 Dump file unspecified or not available

.OPERva   c>  
.OPERva   c>  
.OPERva   c>   Calculating wake trajectory ...
 Calculating source influence matrix ...

 Solving BL system ...

 Side 1 forced transition at x/c =  1.0000   78
 Side 2 forced transition at x/c =  1.0000   84

   1   rms: 0.6601E-02   max: -.3817E-01   C at   84  2   RLX: 0.605
       a =  0.600      CL = -0.1359
      Cm = -0.0087     CD =  0.05300   =>   CDf =  0.02079    CDp =  0.03221

 Side 1 forced transition at x/c =  1.0000   78
 Side 2 forced transition at x/c =  1.0000   84

   2   rms: 0.2619E-02   max: -.1469E-01   C at   84  2
       a =  0.600      CL = -0.1350
      Cm = -0.0087     CD =  0.05301   =>   CDf =  0.02082    CDp =  0.03219

 Side 1 forced transition at x/c =  1.0000   78
 Side 2 forced transition at x/c =  1.0000   84

   3   rms: 0.2473E-04   max: 0.1876E-03   C at   84  2
       a =  0.600      CL = -0.1350
      Cm = -0.0087     CD =  0.05301   =>   CDf =  0.02084    CDp =  0.03216
 plradd ia,ip,cpol           13          77  4.19030674E-02

 Point added to stored polar  1
 Save file unspecified or not available
 Dump file unspecified or not available

.OPERva   c>  
.OPERva   c>  
.OPERva   c>   Calculating wake trajectory ...
 Calculating source influence matrix ...

 Solving BL system ...

 Side 1 forced transition at x/c =  1.0000   78
 Side 2 forced transition at x/c =  1.0000   84

   1   rms: 0.6041E-02   max: -.3845E-01   C at   84  2   RLX: 0.602
       a =  0.650      CL = -0.1337
      Cm = -0.0087     CD =  0.05304   =>   CDf =  0.02084    CDp =  0.03219

 Side 1 forced transition at x/c =  1.0000   78
 Side 2 forced transition at x/c =  1.0000   84

   2   rms: 0.2432E-02   max: -.1531E-01   D at    4  2
       a =  0.650      CL = -0.1327
      Cm = -0.0087     CD =  0.05305   =>   CDf =  0.02087    CDp =  0.03218

 Side 1 forced transition at x/c =  1.0000   78
 Side 2 forced transition at x/c =  1.0000   84

   3   rms: 0.2351E-04   max: 0.1418E-03   C at   84  2
       a =  0.650      CL = -0.1327
      Cm = -0.0087     CD =  0.05305   =>   CDf =  0.02090    CDp =  0.03215
 plradd ia,ip,cpol           14          77  3.56116816E-02

 Point added to stored polar  1
 Save file unspecified or not available
 Dump file unspecified or not available

.OPERva   c>  
.OPERva   c>  
.OPERva   c>   Calculating wake trajectory ...
 Calculating source influence matrix ...

 Solving BL system ...

 Side 1 forced transition at x/c =  1.0000   78
 Side 2 forced transition at x/c =  1.0000   84

   1   rms: 0.5786E-02   max: -.3795E-01   C at   84  2   RLX: 0.599
       a =  0.700      CL = -0.1314
      Cm = -0.0087     CD =  0.05308   =>   CDf =  0.02090    CDp =  0.03218

 Side 1 forced transition at x/c =  1.0000   78
 Side 2 forced transition at x/c =  1.0000   84

   2   rms: 0.2339E-02   max: -.1489E-01   C at   84  2
       a =  0.700      CL = -0.1304
      Cm = -0.0087     CD =  0.05310   =>   CDf =  0.02093    CDp =  0.03217

 Side 1 forced transition at x/c =  1.0000   78
 Side 2 forced transition at x/c =  1.0000   84

   3   rms: 0.2247E-04   max: 0.1592E-03   C at   84  2
       a =  0.700      CL = -0.1304
      Cm = -0.0087     CD =  0.05309   =>   CDf =  0.02095    CDp =  0.03214
 plradd ia,ip,cpol           15          77  4.19030674E-02

 Point added to stored polar  1
 Save file unspecified or not available
 Dump file unspecified or not available

.OPERva   c>  
.OPERva   c>  
.OPERva   c>   Calculating wake trajectory ...
 Calculating source influence matrix ...

 Solving BL system ...

 Side 1 forced transition at x/c =  1.0000   78
 Side 2 forced transition at x/c =  1.0000   84

   1   rms: 0.5663E-02   max: -.3769E-01   C at   84  2   RLX: 0.597
       a =  0.750      CL = -0.1289
      Cm = -0.0087     CD =  0.05313   =>   CDf =  0.02095    CDp =  0.03218

 Side 1 forced transition at x/c =  1.0000   78
 Side 2 forced transition at x/c =  1.0000   84

   2   rms: 0.2315E-02   max: -.1487E-01   C at   84  2
       a =  0.750      CL = -0.1279
      Cm = -0.0087     CD =  0.05315   =>   CDf =  0.02098    CDp =  0.03217

 Side 1 forced transition at x/c =  1.0000   78
 Side 2 forced transition at x/c =  1.0000   84

   3   rms: 0.2606E-04   max: -.1816E-03   T at    3  2
       a =  0.750      CL = -0.1279
      Cm = -0.0087     CD =  0.05314   =>   CDf =  0.02100    CDp =  0.03214
 plradd ia,ip,cpol           16          77  4.19030674E-02

 Point added to stored polar  1
 Save file unspecified or not available
 Dump file unspecified or not available

.OPERva   c>  
.OPERva   c>  
.OPERva   c>   Calculating wake trajectory ...
 Calculating source influence matrix ...

 Solving BL system ...

 Side 1 forced transition at x/c =  1.0000   78
 Side 2 forced transition at x/c =  1.0000   84

   1   rms: 0.6027E-02   max: -.3761E-01   C at   84  2   RLX: 0.594
       a =  0.800      CL = -0.1265
      Cm = -0.0087     CD =  0.05318   =>   CDf =  0.02100    CDp =  0.03218

 Side 1 forced transition at x/c =  1.0000   78
 Side 2 forced transition at x/c =  1.0000   84

   2   rms: 0.2477E-02   max: -.1494E-01   C at   84  2
       a =  0.800      CL = -0.1254
      Cm = -0.0087     CD =  0.05320   =>   CDf =  0.02104    CDp =  0.03217

 Side 1 forced transition at x/c =  1.0000   78
 Side 2 forced transition at x/c =  1.0000   84

   3   rms: 0.2543E-04   max: 0.1663E-03   D at    3  2
       a =  0.800      CL = -0.1254
      Cm = -0.0087     CD =  0.05320   =>   CDf =  0.02106    CDp =  0.03214
 plradd ia,ip,cpol           17          77  4.19030674E-02

 Point added to stored polar  1
 Save file unspecified or not available
 Dump file unspecified or not available

.OPERva   c>  
.OPERva   c>  
.OPERva   c>   Calculating wake trajectory ...
 Calculating source influence matrix ...

 Solving BL system ...

 Side 1 forced transition at x/c =  1.0000   78
 Side 2 forced transition at x/c =  1.0000   84

   1   rms: 0.8077E-02   max: -.5936E-01   D at    2  2   RLX: 0.592
       a =  0.850      CL = -0.1239
      Cm = -0.0087     CD =  0.05324   =>   CDf =  0.02106    CDp =  0.03218

 Side 1 forced transition at x/c =  1.0000   78
 Side 2 forced transition at x/c =  1.0000   84

   2   rms: 0.3180E-02   max: -.2219E-01   T at    2  1
       a =  0.850      CL = -0.1228
      Cm = -0.0088     CD =  0.05327   =>   CDf =  0.02109    CDp =  0.03218

 Side 1 forced transition at x/c =  1.0000   78
 Side 2 forced transition at x/c =  1.0000   84

   3   rms: 0.3234E-04   max: -.1953E-03   D at    4  2
       a =  0.850      CL = -0.1228
      Cm = -0.0088     CD =  0.05326   =>   CDf =  0.02111    CDp =  0.03215
 plradd ia,ip,cpol           18          77  4.19030674E-02

 Point added to stored polar  1
 Save file unspecified or not available
 Dump file unspecified or not available

.OPERva   c>  
.OPERva   c>  
.OPERva   c>   Calculating wake trajectory ...
 Calculating source influence matrix ...

 Solving BL system ...

 Side 1 forced transition at x/c =  1.0000   78
 Side 2 forced transition at x/c =  1.0000   84

   1   rms: 0.6796E-02   max: -.3674E-01   C at   84  2   RLX: 0.589
       a =  0.900      CL = -0.1212
      Cm = -0.0088     CD =  0.05331   =>   CDf =  0.02111    CDp =  0.03220

 Side 1 forced transition at x/c =  1.0000   78
 Side 2 forced transition at x/c =  1.0000   84

   2   rms: 0.2846E-02   max: -.1479E-01   C at   84  2
       a =  0.900      CL = -0.1201
      Cm = -0.0088     CD =  0.05334   =>   CDf =  0.02114    CDp =  0.03220

 Side 1 forced transition at x/c =  1.0000   78
 Side 2 forced transition at x/c =  1.0000   84

   3   rms: 0.2321E-04   max: 0.1227E-03   D at    3  2
       a =  0.900      CL = -0.1201
      Cm = -0.0088     CD =  0.05333   =>   CDf =  0.02116    CDp =  0.03217
 plradd ia,ip,cpol           19          77  4.19030674E-02

 Point added to stored polar  1
 Save file unspecified or not available
 Dump file unspecified or not available

.OPERva   c>  
.OPERva   c>  
.OPERva   c>   Calculating wake trajectory ...
 Calculating source influence matrix ...

 Solving BL system ...

 Side 1 forced transition at x/c =  1.0000   78
 Side 2 forced transition at x/c =  1.0000   84

   1   rms: 0.1056E-01   max: -.1258E+00   D at    3  2   RLX: 0.587
       a =  0.950      CL = -0.1185
      Cm = -0.0088     CD =  0.05338   =>   CDf =  0.02116    CDp =  0.03222

 Side 1 forced transition at x/c =  1.0000   78
 Side 2 forced transition at x/c =  1.0000   84

   2   rms: 0.4870E-02   max: -.6067E-01   T at    3  2
       a =  0.950      CL = -0.1174
      Cm = -0.0089     CD =  0.05341   =>   CDf =  0.02140    CDp =  0.03201

 Side 1 forced transition at x/c =  1.0000   79
 Side 2 forced transition at x/c =  1.0000   83

   3   rms: 0.4864E-02   max: -.7719E-01   D at    2  1
       a =  0.950      CL = -0.1173
      Cm = -0.0089     CD =  0.05341   =>   CDf =  0.02123    CDp =  0.03217

 Side 1 forced transition at x/c =  1.0000   79
 Side 2 forced transition at x/c =  1.0000   83

   4   rms: 0.1724E-02   max: -.2579E-01   D at    3  1
       a =  0.950      CL = -0.1173
      Cm = -0.0089     CD =  0.05341   =>   CDf =  0.02123    CDp =  0.03217

 Side 1 forced transition at x/c =  1.0000   79
 Side 2 forced transition at x/c =  1.0000   83

   5   rms: 0.1135E-04   max: -.1690E-03   D at    4  1
       a =  0.950      CL = -0.1173
      Cm = -0.0089     CD =  0.05341   =>   CDf =  0.02123    CDp =  0.03217
 plradd ia,ip,cpol           20          78  4.19030674E-02

 Point added to stored polar  1
 Save file unspecified or not available
 Dump file unspecified or not available

.OPERva   c>  
.OPERva   c>  
.OPERva   c>   Calculating wake trajectory ...
 Calculating source influence matrix ...

 Solving BL system ...

 Side 1 forced transition at x/c =  1.0000   79
 Side 2 forced transition at x/c =  1.0000   83

   1   rms: 0.1243E-01   max: -.1149E+00   D at    3  1   RLX: 0.585
       a =  1.000      CL = -0.1157
      Cm = -0.0089     CD =  0.05346   =>   CDf =  0.02123    CDp =  0.03223

 Side 1 forced transition at x/c =  1.0000   79
 Side 2 forced transition at x/c =  1.0000   83

   2   rms: 0.5707E-02   max: -.5261E-01   D at    3  2
       a =  1.000      CL = -0.1145
      Cm = -0.0089     CD =  0.05349   =>   CDf =  0.02126    CDp =  0.03223

 Side 1 forced transition at x/c =  1.0000   79
 Side 2 forced transition at x/c =  1.0000   83

   3   rms: 0.1353E-03   max: -.1591E-02   T at    3  1
       a =  1.000      CL = -0.1145
      Cm = -0.0089     CD =  0.05348   =>   CDf =  0.02128    CDp =  0.03220

 Side 1 forced transition at x/c =  1.0000   79
 Side 2 forced transition at x/c =  1.0000   83

   4   rms: 0.2310E-04   max: -.3148E-03   T at    3  1
       a =  1.000      CL = -0.1145
      Cm = -0.0089     CD =  0.05348   =>   CDf =  0.02128    CDp =  0.03220
 plradd ia,ip,cpol           21          78  4.19030674E-02

 Point added to stored polar  1
 Save file unspecified or not available
 Dump file unspecified or not available

.OPERva   c>  
.OPERva   c>  
.OPERva   c>   Calculating wake trajectory ...
 Calculating source influence matrix ...

 Solving BL system ...

 Side 1 forced transition at x/c =  1.0000   79
 Side 2 forced transition at x/c =  1.0000   83

   1   rms: 0.2691E-01   max: -.3516E+00   D at    2  1   RLX: 0.582
       a =  1.050      CL = -0.1129
      Cm = -0.0090     CD =  0.05354   =>   CDf =  0.02128    CDp =  0.03226

 Side 1 forced transition at x/c =  1.0000   79
 Side 2 forced transition at x/c =  1.0000   83

   2   rms: 0.7019E-02   max: -.6128E-01   D at    2  1
       a =  1.050      CL = -0.1116
      Cm = -0.0090     CD =  0.05358   =>   CDf =  0.02132    CDp =  0.03226

 Side 1 forced transition at x/c =  1.0000   79
 Side 2 forced transition at x/c =  1.0000   83

   3   rms: 0.1819E-03   max: -.2058E-02   T at    4  1
       a =  1.050      CL = -0.1116
      Cm = -0.0090     CD =  0.05357   =>   CDf =  0.02134    CDp =  0.03223

 Side 1 forced transition at x/c =  1.0000   79
 Side 2 forced transition at x/c =  1.0000   83

   4   rms: 0.7668E-06   max: 0.4591E-05   D at   98  2
       a =  1.050      CL = -0.1116
      Cm = -0.0090     CD =  0.05357   =>   CDf =  0.02134    CDp =  0.03223
 plradd ia,ip,cpol           22          78  4.19030674E-02

 Point added to stored polar  1
 Save file unspecified or not available
 Dump file unspecified or not available

.OPERva   c>  
.OPERva   c>  
.OPERva   c>   Calculating wake trajectory ...
 Calculating source influence matrix ...

 Solving BL system ...

 Side 1 forced transition at x/c =  1.0000   79
 Side 2 forced transition at x/c =  1.0000   83

   1   rms: 0.1441E-01   max: -.1297E+00   D at    3  1   RLX: 0.580
       a =  1.100      CL = -0.1100
      Cm = -0.0091     CD =  0.05363   =>   CDf =  0.02134    CDp =  0.03229

 Side 1 forced transition at x/c =  1.0000   79
 Side 2 forced transition at x/c =  1.0000   83

   2   rms: 0.7096E-02   max: 0.6713E-01   T at    2  2
       a =  1.100      CL = -0.1087
      Cm = -0.0091     CD =  0.05367   =>   CDf =  0.02137    CDp =  0.03230

 Side 1 forced transition at x/c =  1.0000   79
 Side 2 forced transition at x/c =  1.0000   83

   3   rms: 0.1895E-03   max: -.1610E-02   D at    4  2
       a =  1.100      CL = -0.1087
      Cm = -0.0091     CD =  0.05366   =>   CDf =  0.02139    CDp =  0.03227

 Side 1 forced transition at x/c =  1.0000   79
 Side 2 forced transition at x/c =  1.0000   83

   4   rms: 0.2517E-05   max: 0.3544E-04   D at    3  1
       a =  1.100      CL = -0.1087
      Cm = -0.0091     CD =  0.05366   =>   CDf =  0.02139    CDp =  0.03227
 plradd ia,ip,cpol           23          78  4.19030674E-02

 Point added to stored polar  1
 Save file unspecified or not available
 Dump file unspecified or not available

.OPERva   c>  
.OPERva   c>  
.OPERva   c>   Calculating wake trajectory ...
 Calculating source influence matrix ...

 Solving BL system ...

 Side 1 forced transition at x/c =  1.0000   79
 Side 2 forced transition at x/c =  1.0000   83

   1   rms: 0.7174E-02   max: -.3469E-01   C at   83  2   RLX: 0.578
       a =  1.150      CL = -0.1070
      Cm = -0.0092     CD =  0.05372   =>   CDf =  0.02139    CDp =  0.03233

 Side 1 forced transition at x/c =  1.0000   79
 Side 2 forced transition at x/c =  1.0000   83

   2   rms: 0.3011E-02   max: -.1440E-01   C at   83  2
       a =  1.150      CL = -0.1057
      Cm = -0.0092     CD =  0.05376   =>   CDf =  0.02142    CDp =  0.03234

 Side 1 forced transition at x/c =  1.0000   79
 Side 2 forced transition at x/c =  1.0000   83

   3   rms: 0.2244E-04   max: -.1871E-03   D at    5  1
       a =  1.150      CL = -0.1057
      Cm = -0.0092     CD =  0.05376   =>   CDf =  0.02145    CDp =  0.03231
 plradd ia,ip,cpol           24          78  4.19030674E-02

 Point added to stored polar  1
 Save file unspecified or not available
 Dump file unspecified or not available

.OPERva   c>  
.OPERva   c>  
.OPERva   c>   Calculating wake trajectory ...
 Calculating source influence matrix ...

 Solving BL system ...

 Side 1 forced transition at x/c =  1.0000   79
 Side 2 forced transition at x/c =  1.0000   83

   1   rms: 0.8329E-02   max: 0.6146E-01   D at    3  1   RLX: 0.576
       a =  1.200      CL = -0.1040
      Cm = -0.0093     CD =  0.05382   =>   CDf =  0.02145    CDp =  0.03238

 Side 1 forced transition at x/c =  1.0000   79
 Side 2 forced transition at x/c =  1.0000   83

   2   rms: 0.3387E-02   max: 0.2207E-01   D at    3  1
       a =  1.200      CL = -0.1027
      Cm = -0.0093     CD =  0.05386   =>   CDf =  0.02148    CDp =  0.03239

 Side 1 forced transition at x/c =  1.0000   79
 Side 2 forced transition at x/c =  1.0000   83

   3   rms: 0.3715E-04   max: -.4434E-03   D at    3  1
       a =  1.200      CL = -0.1027
      Cm = -0.0093     CD =  0.05386   =>   CDf =  0.02150    CDp =  0.03236
 plradd ia,ip,cpol           25          78  4.19030674E-02

 Point added to stored polar  1
 Save file unspecified or not available
 Dump file unspecified or not available

.OPERva   c>  
.OPERva   c>  
.OPERva   c>   Calculating wake trajectory ...
 Calculating source influence matrix ...

 Solving BL system ...

 Side 1 forced transition at x/c =  1.0000   79
 Side 2 forced transition at x/c =  1.0000   83

   1   rms: 0.8226E-02   max: -.5348E-01   D at    3  1   RLX: 0.574
       a =  1.250      CL = -0.1009
      Cm = -0.0094     CD =  0.05392   =>   CDf =  0.02150    CDp =  0.03243

 Side 1 forced transition at x/c =  1.0000   79
 Side 2 forced transition at x/c =  1.0000   83

   2   rms: 0.3576E-02   max: -.2461E-01   D at    3  2
       a =  1.250      CL = -0.0996
      Cm = -0.0094     CD =  0.05397   =>   CDf =  0.02153    CDp =  0.03244

 Side 1 forced transition at x/c =  1.0000   79
 Side 2 forced transition at x/c =  1.0000   83

   3   rms: 0.3778E-04   max: -.3529E-03   D at    3  2
       a =  1.250      CL = -0.0996
      Cm = -0.0094     CD =  0.05396   =>   CDf =  0.02155    CDp =  0.03241
 plradd ia,ip,cpol           26          78  4.92188781E-02

 Point added to stored polar  1
 Save file unspecified or not available
 Dump file unspecified or not available

.OPERva   c>  
.OPERva   c>  
.OPERva   c>   Calculating wake trajectory ...
 Calculating source influence matrix ...

 Solving BL system ...

 Side 1 forced transition at x/c =  1.0000   79
 Side 2 forced transition at x/c =  1.0000   83

   1   rms: 0.1047E-01   max: 0.1100E+00   D at    3  1   RLX: 0.572
       a =  1.300      CL = -0.0978
      Cm = -0.0095     CD =  0.05403   =>   CDf =  0.02155    CDp =  0.03248

 Side 1 forced transition at x/c =  1.0000   79
 Side 2 forced transition at x/c =  1.0000   83

   2   rms: 0.4162E-02   max: 0.4051E-01   D at    3  1
       a =  1.300      CL = -0.0965
      Cm = -0.0095     CD =  0.05408   =>   CDf =  0.02158    CDp =  0.03250

 Side 1 forced transition at x/c =  1.0000   79
 Side 2 forced transition at x/c =  1.0000   83

   3   rms: 0.5955E-04   max: -.8383E-03   D at    3  1
       a =  1.300      CL = -0.0965
      Cm = -0.0095     CD =  0.05407   =>   CDf =  0.02160    CDp =  0.03247
 plradd ia,ip,cpol           27          78  4.19030674E-02

 Point added to stored polar  1
 Save file unspecified or not available
 Dump file unspecified or not available

.OPERva   c>  
.OPERva   c>  
.OPERva   c>   Calculating wake trajectory ...
 Calculating source influence matrix ...

 Solving BL system ...

 Side 1 forced transition at x/c =  1.0000   79
 Side 2 forced transition at x/c =  1.0000   83

   1   rms: 0.8836E-02   max: 0.6866E-01   D at    3  2   RLX: 0.570
       a =  1.350      CL = -0.0947
      Cm = -0.0096     CD =  0.05414   =>   CDf =  0.02160    CDp =  0.03254

 Side 1 forced transition at x/c =  1.0000   79
 Side 2 forced transition at x/c =  1.0000   83

   2   rms: 0.3669E-02   max: 0.2997E-01   D at    3  2
       a =  1.350      CL = -0.0933
      Cm = -0.0097     CD =  0.05419   =>   CDf =  0.02163    CDp =  0.03256

 Side 1 forced transition at x/c =  1.0000   79
 Side 2 forced transition at x/c =  1.0000   83

   3   rms: 0.3341E-04   max: -.3349E-03   D at    3  1
       a =  1.350      CL = -0.0933
      Cm = -0.0097     CD =  0.05418   =>   CDf =  0.02165    CDp =  0.03253
 plradd ia,ip,cpol           28          78  4.92188781E-02

 Point added to stored polar  1
 Save file unspecified or not available
 Dump file unspecified or not available

.OPERva   c>  
.OPERva   c>  
.OPERva   c>   Calculating wake trajectory ...
 Calculating source influence matrix ...

 Solving BL system ...

 Side 1 forced transition at x/c =  1.0000   79
 Side 2 forced transition at x/c =  1.0000   83

   1   rms: 0.1498E-01   max: -.1419E+00   D at    3  1   RLX: 0.568
       a =  1.400      CL = -0.0915
      Cm = -0.0097     CD =  0.05426   =>   CDf =  0.02165    CDp =  0.03261

 Side 1 forced transition at x/c =  1.0000   79
 Side 2 forced transition at x/c =  1.0000   83

   2   rms: 0.7582E-02   max: 0.7083E-01   T at    2  2
       a =  1.400      CL = -0.0901
      Cm = -0.0098     CD =  0.05431   =>   CDf =  0.02168    CDp =  0.03263

 Side 1 forced transition at x/c =  1.0000   79
 Side 2 forced transition at x/c =  1.0000   83

   3   rms: 0.2303E-03   max: -.2007E-02   D at    4  1
       a =  1.400      CL = -0.0901
      Cm = -0.0098     CD =  0.05430   =>   CDf =  0.02171    CDp =  0.03260

 Side 1 forced transition at x/c =  1.0000   79
 Side 2 forced transition at x/c =  1.0000   83

   4   rms: 0.1225E-05   max: 0.1297E-04   D at    3  1
       a =  1.400      CL = -0.0901
      Cm = -0.0098     CD =  0.05430   =>   CDf =  0.02171    CDp =  0.03260
 plradd ia,ip,cpol           29          78  4.92188781E-02

 Point added to stored polar  1
 Save file unspecified or not available
 Dump file unspecified or not available

.OPERva   c>  
.OPERva   c>  
.OPERva   c>   Calculating wake trajectory ...
 Calculating source influence matrix ...

 Solving BL system ...

 Side 1 forced transition at x/c =  1.0000   79
 Side 2 forced transition at x/c =  1.0000   83

   1   rms: 0.1131E-01   max: 0.9042E-01   D at    3  1   RLX: 0.566
       a =  1.450      CL = -0.0883
      Cm = -0.0099     CD =  0.05438   =>   CDf =  0.02171    CDp =  0.03267

 Side 1 forced transition at x/c =  1.0000   79
 Side 2 forced transition at x/c =  1.0000   83

   2   rms: 0.4476E-02   max: -.3414E-01   D at    2  2
       a =  1.450      CL = -0.0869
      Cm = -0.0099     CD =  0.05443   =>   CDf =  0.02174    CDp =  0.03269

 Side 1 forced transition at x/c =  1.0000   79
 Side 2 forced transition at x/c =  1.0000   83

   3   rms: 0.7399E-04   max: -.7868E-03   T at    4  1
       a =  1.450      CL = -0.0869
      Cm = -0.0099     CD =  0.05442   =>   CDf =  0.02176    CDp =  0.03267
 plradd ia,ip,cpol           30          78  4.92188781E-02

 Point added to stored polar  1
 Save file unspecified or not available
 Dump file unspecified or not available

.OPERva   c>  
.OPERva   c>  
.OPERva   c>   Calculating wake trajectory ...
 Calculating source influence matrix ...

 Solving BL system ...

 Side 1 forced transition at x/c =  1.0000   79
 Side 2 forced transition at x/c =  1.0000   83

   1   rms: 0.6853E-02   max: -.5174E-01   D at    3  1   RLX: 0.565
       a =  1.500      CL = -0.0851
      Cm = -0.0100     CD =  0.05451   =>   CDf =  0.02176    CDp =  0.03275

 Side 1 forced transition at x/c =  1.0000   79
 Side 2 forced transition at x/c =  1.0000   83

   2   rms: 0.3003E-02   max: -.2235E-01   D at    3  1
       a =  1.500      CL = -0.0836
      Cm = -0.0100     CD =  0.05456   =>   CDf =  0.02179    CDp =  0.03277

 Side 1 forced transition at x/c =  1.0000   79
 Side 2 forced transition at x/c =  1.0000   83

   3   rms: 0.1647E-04   max: -.8234E-04   D at   98  2
       a =  1.500      CL = -0.0836
      Cm = -0.0100     CD =  0.05455   =>   CDf =  0.02181    CDp =  0.03274
 plradd ia,ip,cpol           31          78  4.92188781E-02

 Point added to stored polar  1
 Save file unspecified or not available
 Dump file unspecified or not available

.OPERva   c>  
.OPERva   c>  
.OPERva   c>   Calculating wake trajectory ...
 Calculating source influence matrix ...

 Solving BL system ...

 Side 1 forced transition at x/c =  1.0000   79
 Side 2 forced transition at x/c =  1.0000   83

   1   rms: 0.6150E-02   max: -.3148E-01   C at   83  2   RLX: 0.563
       a =  1.550      CL = -0.0818
      Cm = -0.0101     CD =  0.05463   =>   CDf =  0.02181    CDp =  0.03283

 Side 1 forced transition at x/c =  1.0000   79
 Side 2 forced transition at x/c =  1.0000   83

   2   rms: 0.2706E-02   max: -.1365E-01   C at   83  2
       a =  1.550      CL = -0.0803
      Cm = -0.0102     CD =  0.05469   =>   CDf =  0.02184    CDp =  0.03285

 Side 1 forced transition at x/c =  1.0000   79
 Side 2 forced transition at x/c =  1.0000   83

   3   rms: 0.1635E-04   max: -.8519E-04   D at   98  2
       a =  1.550      CL = -0.0803
      Cm = -0.0102     CD =  0.05468   =>   CDf =  0.02186    CDp =  0.03282
 plradd ia,ip,cpol           32          78  4.92188781E-02

 Point added to stored polar  1
 Save file unspecified or not available
 Dump file unspecified or not available

.OPERva   c>  
.OPERva   c>  
.OPERva   c>   Calculating wake trajectory ...
 Calculating source influence matrix ...

 Solving BL system ...

 Side 1 forced transition at x/c =  1.0000   79
 Side 2 forced transition at x/c =  1.0000   83

   1   rms: 0.8146E-02   max: -.9003E-01   D at    3  2   RLX: 0.561
       a =  1.600      CL = -0.0785
      Cm = -0.0103     CD =  0.05477   =>   CDf =  0.02186    CDp =  0.03291

 Side 1 forced transition at x/c =  1.0000   79
 Side 2 forced transition at x/c =  1.0000   83

   2   rms: 0.3678E-02   max: -.4198E-01   T at    3  2
       a =  1.600      CL = -0.0770
      Cm = -0.0103     CD =  0.05483   =>   CDf =  0.02189    CDp =  0.03294

 Side 1 forced transition at x/c =  1.0000   79
 Side 2 forced transition at x/c =  1.0000   83

   3   rms: 0.6740E-04   max: -.9656E-03   T at    3  2
       a =  1.600      CL = -0.0770
      Cm = -0.0103     CD =  0.05482   =>   CDf =  0.02191    CDp =  0.03291
 plradd ia,ip,cpol           33          78  4.92188781E-02

 Point added to stored polar  1
 Save file unspecified or not available
 Dump file unspecified or not available

.OPERva   c>  
.OPERva   c>  
.OPERva   c>   Calculating wake trajectory ...
 Calculating source influence matrix ...

 Solving BL system ...

 Side 1 forced transition at x/c =  1.0000   79
 Side 2 forced transition at x/c =  1.0000   83

   1   rms: 0.9958E-02   max: 0.1110E+00   D at    3  2   RLX: 0.559
       a =  1.650      CL = -0.0752
      Cm = -0.0104     CD =  0.05490   =>   CDf =  0.02191    CDp =  0.03300

 Side 1 forced transition at x/c =  1.0000   79
 Side 2 forced transition at x/c =  1.0000   83

   2   rms: 0.4450E-02   max: 0.5085E-01   D at    3  2
       a =  1.650      CL = -0.0737
      Cm = -0.0105     CD =  0.05496   =>   CDf =  0.02194    CDp =  0.03303

 Side 1 forced transition at x/c =  1.0000   79
 Side 2 forced transition at x/c =  1.0000   83

   3   rms: 0.3075E-04   max: 0.2913E-03   D at    6  2
       a =  1.650      CL = -0.0737
      Cm = -0.0105     CD =  0.05496   =>   CDf =  0.02196    CDp =  0.03300
 plradd ia,ip,cpol           34          78  4.92188781E-02

 Point added to stored polar  1
 Save file unspecified or not available
 Dump file unspecified or not available

.OPERva   c>  
.OPERva   c>  
.OPERva   c>   Calculating wake trajectory ...
 Calculating source influence matrix ...

 Solving BL system ...

 Side 1 forced transition at x/c =  1.0000   79
 Side 2 forced transition at x/c =  1.0000   83

   1   rms: 0.1002E-01   max: -.1069E+00   D at    3  2   RLX: 0.558
       a =  1.700      CL = -0.0718
      Cm = -0.0106     CD =  0.05505   =>   CDf =  0.02196    CDp =  0.03309

 Side 1 forced transition at x/c =  1.0000   79
 Side 2 forced transition at x/c =  1.0000   83

   2   rms: 0.4917E-02   max: -.5713E-01   T at    3  2
       a =  1.700      CL = -0.0703
      Cm = -0.0106     CD =  0.05511   =>   CDf =  0.02199    CDp =  0.03312

 Side 1 forced transition at x/c =  1.0000   79
 Side 2 forced transition at x/c =  1.0000   83

   3   rms: 0.2540E-03   max: -.3795E-02   T at    3  2
       a =  1.700      CL = -0.0703
      Cm = -0.0106     CD =  0.05510   =>   CDf =  0.02201    CDp =  0.03309

 Side 1 forced transition at x/c =  1.0000   79
 Side 2 forced transition at x/c =  1.0000   83

   4   rms: 0.1795E-05   max: -.2355E-04   T at    3  2
       a =  1.700      CL = -0.0703
      Cm = -0.0106     CD =  0.05510   =>   CDf =  0.02201    CDp =  0.03309
 plradd ia,ip,cpol           35          78  4.92188781E-02

 Point added to stored polar  1
 Save file unspecified or not available
 Dump file unspecified or not available

.OPERva   c>  
.OPERva   c>  
.OPERva   c>   Calculating wake trajectory ...
 Calculating source influence matrix ...

 Solving BL system ...

 Side 1 forced transition at x/c =  1.0000   79
 Side 2 forced transition at x/c =  1.0000   83

   1   rms: 0.9337E-02   max: 0.7877E-01   D at    3  1   RLX: 0.556
       a =  1.750      CL = -0.0684
      Cm = -0.0107     CD =  0.05519   =>   CDf =  0.02201    CDp =  0.03318

 Side 1 forced transition at x/c =  1.0000   79
 Side 2 forced transition at x/c =  1.0000   83

   2   rms: 0.3966E-02   max: 0.3211E-01   D at    3  1
       a =  1.750      CL = -0.0669
      Cm = -0.0108     CD =  0.05525   =>   CDf =  0.02203    CDp =  0.03322

 Side 1 forced transition at x/c =  1.0000   79
 Side 2 forced transition at x/c =  1.0000   83

   3   rms: 0.3680E-04   max: -.3206E-03   D at    3  1
       a =  1.750      CL = -0.0669
      Cm = -0.0108     CD =  0.05524   =>   CDf =  0.02205    CDp =  0.03319
 plradd ia,ip,cpol           36          78  4.92188781E-02

 Point added to stored polar  1
 Save file unspecified or not available
 Dump file unspecified or not available

.OPERva   c>  
.OPERva   c>  
.OPERva   c>   Calculating wake trajectory ...
 Calculating source influence matrix ...

 Solving BL system ...

 Side 1 forced transition at x/c =  1.0000   79
 Side 2 forced transition at x/c =  1.0000   83

   1   rms: 0.6390E-02   max: -.2958E-01   C at   83  2   RLX: 0.554
       a =  1.800      CL = -0.0651
      Cm = -0.0109     CD =  0.05534   =>   CDf =  0.02205    CDp =  0.03328

 Side 1 forced transition at x/c =  1.0000   79
 Side 2 forced transition at x/c =  1.0000   83

   2   rms: 0.2891E-02   max: -.1309E-01   C at   83  2
       a =  1.800      CL = -0.0636
      Cm = -0.0109     CD =  0.05540   =>   CDf =  0.02208    CDp =  0.03332

 Side 1 forced transition at x/c =  1.0000   79
 Side 2 forced transition at x/c =  1.0000   83

   3   rms: 0.1557E-03   max: 0.2012E-02   D at    4  2
       a =  1.800      CL = -0.0635
      Cm = -0.0109     CD =  0.05539   =>   CDf =  0.02210    CDp =  0.03329

 Side 1 forced transition at x/c =  1.0000   79
 Side 2 forced transition at x/c =  1.0000   83

   4   rms: 0.1708E-04   max: 0.2326E-03   T at    3  2
       a =  1.800      CL = -0.0635
      Cm = -0.0109     CD =  0.05539   =>   CDf =  0.02210    CDp =  0.03329
 plradd ia,ip,cpol           37          78  4.92188781E-02

 Point added to stored polar  1
 Save file unspecified or not available
 Dump file unspecified or not available

.OPERva   c>  
.OPERva   c>  
.OPERva   c>   Calculating wake trajectory ...
 Calculating source influence matrix ...

 Solving BL system ...

 Side 1 forced transition at x/c =  1.0000   79
 Side 2 forced transition at x/c =  1.0000   83

   1   rms: 0.6733E-02   max: -.2960E-01   C at   83  2   RLX: 0.553
       a =  1.850      CL = -0.0617
      Cm = -0.0110     CD =  0.05549   =>   CDf =  0.02220    CDp =  0.03329

 Side 1 forced transition at x/c =  1.0000   80
 Side 2 forced transition at x/c =  1.0000   82

   2   rms: 0.1079E-01   max: -.1841E+00   T at    2  1
       a =  1.850      CL = -0.0601
      Cm = -0.0111     CD =  0.05556   =>   CDf =  0.02214    CDp =  0.03341

 Side 1 forced transition at x/c =  1.0000   80
 Side 2 forced transition at x/c =  1.0000   82

   3   rms: 0.4054E-03   max: -.6273E-02   D at    3  1
       a =  1.850      CL = -0.0601
      Cm = -0.0111     CD =  0.05555   =>   CDf =  0.02216    CDp =  0.03338

 Side 1 forced transition at x/c =  1.0000   80
 Side 2 forced transition at x/c =  1.0000   82

   4   rms: 0.5847E-05   max: 0.8346E-04   D at    3  1
       a =  1.850      CL = -0.0601
      Cm = -0.0111     CD =  0.05555   =>   CDf =  0.02216    CDp =  0.03338
 plradd ia,ip,cpol           38          79  4.92188781E-02

 Point added to stored polar  1
 Save file unspecified or not available
 Dump file unspecified or not available

.OPERva   c>  
.OPERva   c>  
.OPERva   c>   Calculating wake trajectory ...
 Calculating source influence matrix ...

 Solving BL system ...

 Side 1 forced transition at x/c =  1.0000   80
 Side 2 forced transition at x/c =  1.0000   82

   1   rms: 0.1075E-01   max: -.1135E+00   D at    3  1   RLX: 0.551
       a =  1.900      CL = -0.0582
      Cm = -0.0112     CD =  0.05564   =>   CDf =  0.02216    CDp =  0.03348

 Side 1 forced transition at x/c =  1.0000   80
 Side 2 forced transition at x/c =  1.0000   82
 idif Ue xi dudx           1  0.12013583      2.10070610E-03   57.188309    
 Uenew xinew           2  1.02942402E-03  1.80006027E-05

   2   rms: 0.5174E-02   max: -.5567E-01   D at    3  1
       a =  1.900      CL = -0.0567
      Cm = -0.0112     CD =  0.05571   =>   CDf =  0.02215    CDp =  0.03356

 Side 1 forced transition at x/c =  1.0000   79
 Side 2 forced transition at x/c =  1.0000   83

   3   rms: 0.4624E-03   max: -.6398E-02   T at    2  2
       a =  1.900      CL = -0.0567
      Cm = -0.0113     CD =  0.05570   =>   CDf =  0.02220    CDp =  0.03351

 Side 1 forced transition at x/c =  1.0000   79
 Side 2 forced transition at x/c =  1.0000   83

   4   rms: 0.7488E-03   max: 0.1065E-01   T at    3  2
       a =  1.900      CL = -0.0567
      Cm = -0.0113     CD =  0.05570   =>   CDf =  0.02220    CDp =  0.03351

 Side 1 forced transition at x/c =  1.0000   79
 Side 2 forced transition at x/c =  1.0000   83

   5   rms: 0.9639E-05   max: 0.1049E-03   D at    4  2
       a =  1.900      CL = -0.0567
      Cm = -0.0113     CD =  0.05570   =>   CDf =  0.02220    CDp =  0.03351
 plradd ia,ip,cpol           39          78  4.92188781E-02

 Point added to stored polar  1
 Save file unspecified or not available
 Dump file unspecified or not available

.OPERva   c>  
.OPERva   c>  
.OPERva   c>   Calculating wake trajectory ...
 Calculating source influence matrix ...

 Solving BL system ...

 Side 1 forced transition at x/c =  1.0000   79
 Side 2 forced transition at x/c =  1.0000   83

   1   rms: 0.9453E-02   max: -.8779E-01   T at    3  2   RLX: 0.549
       a =  1.950      CL = -0.0548
      Cm = -0.0113     CD =  0.05580   =>   CDf =  0.02228    CDp =  0.03352

 Side 1 forced transition at x/c =  1.0000   80
 Side 2 forced transition at x/c =  1.0000   82

   2   rms: 0.8398E-02   max: -.1196E+00   T at    2  1
       a =  1.950      CL = -0.0533
      Cm = -0.0114     CD =  0.05587   =>   CDf =  0.02224    CDp =  0.03364

 Side 1 forced transition at x/c =  1.0000   80
 Side 2 forced transition at x/c =  1.0000   82

   3   rms: 0.2960E-03   max: -.3793E-02   D at    3  1
       a =  1.950      CL = -0.0533
      Cm = -0.0114     CD =  0.05586   =>   CDf =  0.02226    CDp =  0.03361

 Side 1 forced transition at x/c =  1.0000   80
 Side 2 forced transition at x/c =  1.0000   82

   4   rms: 0.2022E-05   max: -.2894E-04   D at    3  1
       a =  1.950      CL = -0.0533
      Cm = -0.0114     CD =  0.05586   =>   CDf =  0.02226    CDp =  0.03361
 plradd ia,ip,cpol           40          79  4.92188781E-02

 Point added to stored polar  1
 Save file unspecified or not available
 Dump file unspecified or not available

.OPERva   c>  
.OPERva   c>  
.OPERva   c>   Calculating wake trajectory ...
 Calculating source influence matrix ...

 Solving BL system ...

 Side 1 forced transition at x/c =  1.0000   80
 Side 2 forced transition at x/c =  1.0000   82

   1   rms: 0.6471E-02   max: -.2832E-01   C at   82  2   RLX: 0.548
       a =  2.000      CL = -0.0514
      Cm = -0.0115     CD =  0.05597   =>   CDf =  0.02226    CDp =  0.03371

 Side 1 forced transition at x/c =  1.0000   80
 Side 2 forced transition at x/c =  1.0000   82

   2   rms: 0.2927E-02   max: -.1276E-01   C at   82  2
       a =  2.000      CL = -0.0498
      Cm = -0.0116     CD =  0.05604   =>   CDf =  0.02228    CDp =  0.03376

 Side 1 forced transition at x/c =  1.0000   80
 Side 2 forced transition at x/c =  1.0000   82

   3   rms: 0.1510E-04   max: -.7005E-04   D at   90  2
       a =  2.000      CL = -0.0498
      Cm = -0.0116     CD =  0.05603   =>   CDf =  0.02230    CDp =  0.03373
 plradd ia,ip,cpol           41          79  4.92188781E-02

 Point added to stored polar  1
 Save file unspecified or not available
 Dump file unspecified or not available

.OPERva   c>  
.OPERva   c>  
.OPERva   c>   Calculating wake trajectory ...
 Calculating source influence matrix ...

 Solving BL system ...

 Side 1 forced transition at x/c =  1.0000   80
 Side 2 forced transition at x/c =  1.0000   82

   1   rms: 0.6458E-02   max: -.2770E-01   C at   82  2   RLX: 0.546
       a =  2.050      CL = -0.0479
      Cm = -0.0117     CD =  0.05613   =>   CDf =  0.02230    CDp =  0.03383

 Side 1 forced transition at x/c =  1.0000   80
 Side 2 forced transition at x/c =  1.0000   82

   2   rms: 0.2929E-02   max: -.1256E-01   C at   82  2
       a =  2.050      CL = -0.0464
      Cm = -0.0117     CD =  0.05621   =>   CDf =  0.02233    CDp =  0.03388

 Side 1 forced transition at x/c =  1.0000   80
 Side 2 forced transition at x/c =  1.0000   82

   3   rms: 0.1625E-04   max: 0.8607E-04   D at    3  2
       a =  2.050      CL = -0.0463
      Cm = -0.0117     CD =  0.05620   =>   CDf =  0.02235    CDp =  0.03385
 plradd ia,ip,cpol           42          79  5.77631034E-02

 Point added to stored polar  1
 Save file unspecified or not available
 Dump file unspecified or not available

.OPERva   c>  
.OPERva   c>  
.OPERva   c>   Calculating wake trajectory ...
 Calculating source influence matrix ...

 Solving BL system ...

 Side 1 forced transition at x/c =  1.0000   80
 Side 2 forced transition at x/c =  1.0000   82

   1   rms: 0.7157E-02   max: 0.4684E-01   D at    4  1   RLX: 0.545
       a =  2.100      CL = -0.0445
      Cm = -0.0118     CD =  0.05630   =>   CDf =  0.02235    CDp =  0.03395

 Side 1 forced transition at x/c =  1.0000   80
 Side 2 forced transition at x/c =  1.0000   82

   2   rms: 0.3224E-02   max: 0.2005E-01   D at    4  1
       a =  2.100      CL = -0.0429
      Cm = -0.0119     CD =  0.05638   =>   CDf =  0.02237    CDp =  0.03401

 Side 1 forced transition at x/c =  1.0000   80
 Side 2 forced transition at x/c =  1.0000   82

   3   rms: 0.2076E-04   max: -.2140E-03   D at    4  1
       a =  2.100      CL = -0.0429
      Cm = -0.0119     CD =  0.05637   =>   CDf =  0.02239    CDp =  0.03397
 plradd ia,ip,cpol           43          79  5.77631034E-02

 Point added to stored polar  1
 Save file unspecified or not available
 Dump file unspecified or not available

.OPERva   c>  
.OPERva   c>  
.OPERva   c>   Calculating wake trajectory ...
 Calculating source influence matrix ...

 Solving BL system ...

 Side 1 forced transition at x/c =  1.0000   80
 Side 2 forced transition at x/c =  1.0000   82

   1   rms: 0.8674E-02   max: 0.8503E-01   D at    3  1   RLX: 0.543
       a =  2.150      CL = -0.0410
      Cm = -0.0120     CD =  0.05647   =>   CDf =  0.02239    CDp =  0.03408

 Side 1 forced transition at x/c =  1.0000   80
 Side 2 forced transition at x/c =  1.0000   82

   2   rms: 0.3857E-02   max: 0.3586E-01   D at    3  1
       a =  2.150      CL = -0.0394
      Cm = -0.0121     CD =  0.05655   =>   CDf =  0.02242    CDp =  0.03413

 Side 1 forced transition at x/c =  1.0000   80
 Side 2 forced transition at x/c =  1.0000   82

   3   rms: 0.4113E-04   max: -.6559E-03   D at    3  1
       a =  2.150      CL = -0.0394
      Cm = -0.0121     CD =  0.05654   =>   CDf =  0.02243    CDp =  0.03410
 plradd ia,ip,cpol           44          79  5.77631034E-02

 Point added to stored polar  1
 Save file unspecified or not available
 Dump file unspecified or not available

.OPERva   c>  
.OPERva   c>  
.OPERva   c>   Calculating wake trajectory ...
 Calculating source influence matrix ...

 Solving BL system ...

 Side 1 forced transition at x/c =  1.0000   80
 Side 2 forced transition at x/c =  1.0000   82

   1   rms: 0.8349E-02   max: -.8718E-01   D at    3  2   RLX: 0.542
       a =  2.200      CL = -0.0375
      Cm = -0.0122     CD =  0.05665   =>   CDf =  0.02243    CDp =  0.03421

 Side 1 forced transition at x/c =  1.0000   80
 Side 2 forced transition at x/c =  1.0000   82

   2   rms: 0.4002E-02   max: -.4388E-01   D at    3  2
       a =  2.200      CL = -0.0359
      Cm = -0.0122     CD =  0.05673   =>   CDf =  0.02246    CDp =  0.03427

 Side 1 forced transition at x/c =  1.0000   80
 Side 2 forced transition at x/c =  1.0000   82

   3   rms: 0.6699E-04   max: -.9842E-03   D at    3  2
       a =  2.200      CL = -0.0359
      Cm = -0.0122     CD =  0.05672   =>   CDf =  0.02248    CDp =  0.03424
 plradd ia,ip,cpol           45          79  5.77631034E-02

 Point added to stored polar  1
 Save file unspecified or not available
 Dump file unspecified or not available

.OPERva   c>  
.OPERva   c>  
.OPERva   c>   Calculating wake trajectory ...
 Calculating source influence matrix ...

 Solving BL system ...

 Side 1 forced transition at x/c =  1.0000   80
 Side 2 forced transition at x/c =  1.0000   82

   1   rms: 0.7739E-02   max: -.6499E-01   D at    3  1   RLX: 0.540
       a =  2.250      CL = -0.0340
      Cm = -0.0123     CD =  0.05683   =>   CDf =  0.02248    CDp =  0.03435

 Side 1 forced transition at x/c =  1.0000   80
 Side 2 forced transition at x/c =  1.0000   82

   2   rms: 0.3593E-02   max: -.2934E-01   D at    3  1
       a =  2.250      CL = -0.0324
      Cm = -0.0124     CD =  0.05691   =>   CDf =  0.02250    CDp =  0.03441

 Side 1 forced transition at x/c =  1.0000   80
 Side 2 forced transition at x/c =  1.0000   82

   3   rms: 0.2056E-04   max: -.1834E-03   D at    4  2
       a =  2.250      CL = -0.0324
      Cm = -0.0124     CD =  0.05690   =>   CDf =  0.02252    CDp =  0.03438
 plradd ia,ip,cpol           46          79  0.21435590    

 Point added to stored polar  1
 Save file unspecified or not available
 Dump file unspecified or not available

.OPERva   c>  
.OPERva   c>  
.OPERva   c>   Calculating wake trajectory ...
 Calculating source influence matrix ...

 Solving BL system ...

 Side 1 forced transition at x/c =  1.0000   80
 Side 2 forced transition at x/c =  1.0000   82

   1   rms: 0.7023E-02   max: -.6355E-01   D at    4  1   RLX: 0.539
       a =  2.300      CL = -0.0305
      Cm = -0.0125     CD =  0.05701   =>   CDf =  0.02252    CDp =  0.03449

 Side 1 forced transition at x/c =  1.0000   80
 Side 2 forced transition at x/c =  1.0000   82

   2   rms: 0.3248E-02   max: -.2911E-01   D at    4  1
       a =  2.300      CL = -0.0289
      Cm = -0.0126     CD =  0.05709   =>   CDf =  0.02254    CDp =  0.03455

 Side 1 forced transition at x/c =  1.0000   80
 Side 2 forced transition at x/c =  1.0000   82

   3   rms: 0.1734E-04   max: 0.1249E-03   D at    6  1
       a =  2.300      CL = -0.0289
      Cm = -0.0126     CD =  0.05708   =>   CDf =  0.02256    CDp =  0.03452
 plradd ia,ip,cpol           47          79  0.21435590    

 Point added to stored polar  1
 Save file unspecified or not available
 Dump file unspecified or not available

.OPERva   c>  
.OPERva   c>  
.OPERva   c>   Calculating wake trajectory ...
 Calculating source influence matrix ...

 Solving BL system ...

 Side 1 forced transition at x/c =  1.0000   80
 Side 2 forced transition at x/c =  1.0000   82

   1   rms: 0.1291E-01   max: -.1141E+00   T at    2  2   RLX: 0.537
       a =  2.350      CL = -0.0270
      Cm = -0.0127     CD =  0.05719   =>   CDf =  0.02256    CDp =  0.03463

 Side 1 forced transition at x/c =  1.0000   80
 Side 2 forced transition at x/c =  1.0000   82

   2   rms: 0.5403E-02   max: -.4549E-01   T at    2  2
       a =  2.350      CL = -0.0254
      Cm = -0.0127     CD =  0.05728   =>   CDf =  0.02258    CDp =  0.03469

 Side 1 forced transition at x/c =  1.0000   80
 Side 2 forced transition at x/c =  1.0000   82

   3   rms: 0.9548E-04   max: -.8094E-03   D at    4  2
       a =  2.350      CL = -0.0254
      Cm = -0.0127     CD =  0.05727   =>   CDf =  0.02260    CDp =  0.03466
 plradd ia,ip,cpol           48          79  0.21435590    

 Point added to stored polar  1
 Save file unspecified or not available
 Dump file unspecified or not available

.OPERva   c>  
.OPERva   c>  
.OPERva   c>   Calculating wake trajectory ...
 Calculating source influence matrix ...

 Solving BL system ...

 Side 1 forced transition at x/c =  1.0000   80
 Side 2 forced transition at x/c =  1.0000   82

   1   rms: 0.8358E-02   max: -.7673E-01   D at    3  1   RLX: 0.536
       a =  2.400      CL = -0.0235
      Cm = -0.0128     CD =  0.05738   =>   CDf =  0.02260    CDp =  0.03478

 Side 1 forced transition at x/c =  1.0000   80
 Side 2 forced transition at x/c =  1.0000   82

   2   rms: 0.3975E-02   max: -.3619E-01   D at    3  1
       a =  2.400      CL = -0.0219
      Cm = -0.0129     CD =  0.05747   =>   CDf =  0.02262    CDp =  0.03484

 Side 1 forced transition at x/c =  1.0000   80
 Side 2 forced transition at x/c =  1.0000   82

   3   rms: 0.3344E-04   max: 0.3456E-03   D at    5  1
       a =  2.400      CL = -0.0219
      Cm = -0.0129     CD =  0.05745   =>   CDf =  0.02264    CDp =  0.03481
 plradd ia,ip,cpol           49          79  0.21435590    

 Point added to stored polar  1
 Save file unspecified or not available
 Dump file unspecified or not available

.OPERva   c>  
.OPERva   c>  
.OPERva   c>   Calculating wake trajectory ...
 Calculating source influence matrix ...

 Solving BL system ...

 Side 1 forced transition at x/c =  1.0000   80
 Side 2 forced transition at x/c =  1.0000   82

   1   rms: 0.7543E-02   max: -.6782E-01   D at    3  2   RLX: 0.534
       a =  2.450      CL = -0.0200
      Cm = -0.0130     CD =  0.05757   =>   CDf =  0.02264    CDp =  0.03493

 Side 1 forced transition at x/c =  1.0000   80
 Side 2 forced transition at x/c =  1.0000   82

   2   rms: 0.3643E-02   max: -.3482E-01   D at    3  2
       a =  2.450      CL = -0.0184
      Cm = -0.0131     CD =  0.05766   =>   CDf =  0.02266    CDp =  0.03499

 Side 1 forced transition at x/c =  1.0000   80
 Side 2 forced transition at x/c =  1.0000   82

   3   rms: 0.5548E-04   max: -.8958E-03   D at    3  2
       a =  2.450      CL = -0.0184
      Cm = -0.0131     CD =  0.05765   =>   CDf =  0.02268    CDp =  0.03497
 plradd ia,ip,cpol           50          79  0.21435590    

 Point added to stored polar  1
 Save file unspecified or not available
 Dump file unspecified or not available

.OPERva   c>  
.OPERva   c>  
.OPERva   c>   Calculating wake trajectory ...
 Calculating source influence matrix ...

 Solving BL system ...

 Side 1 forced transition at x/c =  1.0000   80
 Side 2 forced transition at x/c =  1.0000   82

   1   rms: 0.6877E-02   max: -.2510E-01   C at   82  2   RLX: 0.533
       a =  2.500      CL = -0.0165
      Cm = -0.0132     CD =  0.05776   =>   CDf =  0.02268    CDp =  0.03508

 Side 1 forced transition at x/c =  1.0000   80
 Side 2 forced transition at x/c =  1.0000   82

   2   rms: 0.3212E-02   max: -.1171E-01   C at   82  2
       a =  2.500      CL = -0.0149
      Cm = -0.0133     CD =  0.05785   =>   CDf =  0.02270    CDp =  0.03515

 Side 1 forced transition at x/c =  1.0000   80
 Side 2 forced transition at x/c =  1.0000   82

   3   rms: 0.1515E-04   max: -.8878E-04   D at    5  1
       a =  2.500      CL = -0.0148
      Cm = -0.0133     CD =  0.05784   =>   CDf =  0.02272    CDp =  0.03512
 plradd ia,ip,cpol           51          79  0.21435590    

 Point added to stored polar  1
 Save file unspecified or not available
 Dump file unspecified or not available

.OPERva   c>  
.OPERva   c>  
.OPERva   c>   Calculating wake trajectory ...
 Calculating source influence matrix ...

 Solving BL system ...

 Side 1 forced transition at x/c =  1.0000   80
 Side 2 forced transition at x/c =  1.0000   82

   1   rms: 0.8191E-02   max: -.6980E-01   D at    3  1   RLX: 0.531
       a =  2.550      CL = -0.0130
      Cm = -0.0134     CD =  0.05796   =>   CDf =  0.02272    CDp =  0.03524

 Side 1 forced transition at x/c =  1.0000   80
 Side 2 forced transition at x/c =  1.0000   82

   2   rms: 0.3906E-02   max: -.3299E-01   D at    3  1
       a =  2.550      CL = -0.0114
      Cm = -0.0134     CD =  0.05805   =>   CDf =  0.02274    CDp =  0.03531

 Side 1 forced transition at x/c =  1.0000   80
 Side 2 forced transition at x/c =  1.0000   82

   3   rms: 0.2645E-04   max: 0.2364E-03   D at    5  1
       a =  2.550      CL = -0.0113
      Cm = -0.0134     CD =  0.05804   =>   CDf =  0.02276    CDp =  0.03528
 plradd ia,ip,cpol           52          79  0.21435590    

 Point added to stored polar  1
 Save file unspecified or not available
 Dump file unspecified or not available

.OPERva   c>  
.OPERva   c>  
.OPERva   c>   Calculating wake trajectory ...
 Calculating source influence matrix ...

 Solving BL system ...

 Side 1 forced transition at x/c =  1.0000   80
 Side 2 forced transition at x/c =  1.0000   82

   1   rms: 0.8925E-02   max: 0.8454E-01   D at    3  1   RLX: 0.530
       a =  2.600      CL = -0.0095
      Cm = -0.0135     CD =  0.05816   =>   CDf =  0.02276    CDp =  0.03540

 Side 1 forced transition at x/c =  1.0000   80
 Side 2 forced transition at x/c =  1.0000   82

   2   rms: 0.4058E-02   max: 0.3617E-01   D at    3  1
       a =  2.600      CL = -0.0079
      Cm = -0.0136     CD =  0.05825   =>   CDf =  0.02278    CDp =  0.03548

 Side 1 forced transition at x/c =  1.0000   80
 Side 2 forced transition at x/c =  1.0000   82

   3   rms: 0.5150E-04   max: -.6407E-03   D at    3  1
       a =  2.600      CL = -0.0078
      Cm = -0.0136     CD =  0.05824   =>   CDf =  0.02280    CDp =  0.03545
 plradd ia,ip,cpol           53          79  0.21435590    

 Point added to stored polar  1
 Save file unspecified or not available
 Dump file unspecified or not available

.OPERva   c>  
.OPERva   c>  
.OPERva   c>   Calculating wake trajectory ...
 Calculating source influence matrix ...

 Solving BL system ...

 Side 1 forced transition at x/c =  1.0000   80
 Side 2 forced transition at x/c =  1.0000   82

   1   rms: 0.7034E-02   max: -.4112E-01   D at    3  2   RLX: 0.528
       a =  2.650      CL = -0.0060
      Cm = -0.0137     CD =  0.05836   =>   CDf =  0.02280    CDp =  0.03557

 Side 1 forced transition at x/c =  1.0000   80
 Side 2 forced transition at x/c =  1.0000   82

   2   rms: 0.3372E-02   max: -.2143E-01   D at    3  2
       a =  2.650      CL = -0.0044
      Cm = -0.0138     CD =  0.05846   =>   CDf =  0.02282    CDp =  0.03564

 Side 1 forced transition at x/c =  1.0000   80
 Side 2 forced transition at x/c =  1.0000   82

   3   rms: 0.3414E-04   max: -.4906E-03   D at    3  2
       a =  2.650      CL = -0.0043
      Cm = -0.0138     CD =  0.05845   =>   CDf =  0.02283    CDp =  0.03561
 plradd ia,ip,cpol           54          79  0.21435590    

 Point added to stored polar  1
 Save file unspecified or not available
 Dump file unspecified or not available

.OPERva   c>  
.OPERva   c>  
.OPERva   c>   Calculating wake trajectory ...
 Calculating source influence matrix ...

 Solving BL system ...

 Side 1 forced transition at x/c =  1.0000   80
 Side 2 forced transition at x/c =  1.0000   82

   1   rms: 0.6236E-02   max: -.2395E-01   C at   82  2   RLX: 0.527
       a =  2.700      CL = -0.0025
      Cm = -0.0139     CD =  0.05857   =>   CDf =  0.02283    CDp =  0.03574

 Side 1 forced transition at x/c =  1.0000   80
 Side 2 forced transition at x/c =  1.0000   82

   2   rms: 0.2959E-02   max: -.1128E-01   C at   82  2
       a =  2.700      CL = -0.0008
      Cm = -0.0140     CD =  0.05866   =>   CDf =  0.02285    CDp =  0.03581

 Side 1 forced transition at x/c =  1.0000   80
 Side 2 forced transition at x/c =  1.0000   82

   3   rms: 0.1535E-04   max: -.1338E-03   D at    3  2
       a =  2.700      CL = -0.0008
      Cm = -0.0140     CD =  0.05865   =>   CDf =  0.02287    CDp =  0.03578
 plradd ia,ip,cpol           55          79  0.19919689    

 Point added to stored polar  1
 Save file unspecified or not available
 Dump file unspecified or not available

.OPERva   c>  
.OPERva   c>  
.OPERva   c>   Calculating wake trajectory ...
 Calculating source influence matrix ...

 Solving BL system ...

 Side 1 forced transition at x/c =  1.0000   80
 Side 2 forced transition at x/c =  1.0000   82

   1   rms: 0.6866E-02   max: -.5486E-01   D at    3  2   RLX: 0.525
       a =  2.750      CL =  0.0010
      Cm = -0.0141     CD =  0.05878   =>   CDf =  0.02287    CDp =  0.03591

 Side 1 forced transition at x/c =  1.0000   80
 Side 2 forced transition at x/c =  1.0000   82

   2   rms: 0.3357E-02   max: -.2859E-01   D at    3  2
       a =  2.750      CL =  0.0027
      Cm = -0.0141     CD =  0.05887   =>   CDf =  0.02289    CDp =  0.03599

 Side 1 forced transition at x/c =  1.0000   80
 Side 2 forced transition at x/c =  1.0000   82

   3   rms: 0.9000E-04   max: -.1331E-02   T at    3  2
       a =  2.750      CL =  0.0027
      Cm = -0.0141     CD =  0.05886   =>   CDf =  0.02290    CDp =  0.03596
 plradd ia,ip,cpol           56          79  0.19919689    

 Point added to stored polar  1
 Save file unspecified or not available
 Dump file unspecified or not available

.OPERva   c>  
.OPERva   c>  
.OPERva   c>   Calculating wake trajectory ...
 Calculating source influence matrix ...

 Solving BL system ...

 Side 1 forced transition at x/c =  1.0000   80
 Side 2 forced transition at x/c =  1.0000   82

   1   rms: 0.8385E-02   max: 0.8381E-01   D at    3  2   RLX: 0.524
       a =  2.800      CL =  0.0045
      Cm = -0.0142     CD =  0.05899   =>   CDf =  0.02290    CDp =  0.03608

 Side 1 forced transition at x/c =  1.0000   80
 Side 2 forced transition at x/c =  1.0000   82

   2   rms: 0.4031E-02   max: 0.4137E-01   D at    3  2
       a =  2.800      CL =  0.0062
      Cm = -0.0143     CD =  0.05909   =>   CDf =  0.02292    CDp =  0.03616

 Side 1 forced transition at x/c =  1.0000   80
 Side 2 forced transition at x/c =  1.0000   82

   3   rms: 0.2344E-04   max: -.2097E-03   D at    4  2
       a =  2.800      CL =  0.0062
      Cm = -0.0143     CD =  0.05907   =>   CDf =  0.02294    CDp =  0.03613
 plradd ia,ip,cpol           57          79  0.19919689    

 Point added to stored polar  1
 Save file unspecified or not available
 Dump file unspecified or not available

.OPERva   c>  
.OPERva   c>  
.OPERva   c>   Calculating wake trajectory ...
 Calculating source influence matrix ...

 Solving BL system ...

 Side 1 forced transition at x/c =  1.0000   80
 Side 2 forced transition at x/c =  1.0000   82

   1   rms: 0.8061E-02   max: -.7774E-01   D at    3  2   RLX: 0.523
       a =  2.850      CL =  0.0080
      Cm = -0.0144     CD =  0.05920   =>   CDf =  0.02291    CDp =  0.03629

 Side 1 forced transition at x/c =  1.0000   81
 Side 2 forced transition at x/c =  1.0000   81

   2   rms: 0.4545E-02   max: -.3952E-01   D at    2  1
       a =  2.850      CL =  0.0097
      Cm = -0.0145     CD =  0.05930   =>   CDf =  0.02297    CDp =  0.03633

 Side 1 forced transition at x/c =  1.0000   81
 Side 2 forced transition at x/c =  1.0000   81

   3   rms: 0.5720E-04   max: 0.6055E-03   D at    6  1
       a =  2.850      CL =  0.0097
      Cm = -0.0145     CD =  0.05929   =>   CDf =  0.02299    CDp =  0.03630
 plradd ia,ip,cpol           58          80  0.19919689    

 Point added to stored polar  1
 Save file unspecified or not available
 Dump file unspecified or not available

.OPERva   c>  
.OPERva   c>  
.OPERva   c>   Calculating wake trajectory ...
 Calculating source influence matrix ...

 Solving BL system ...

 Side 1 forced transition at x/c =  1.0000   81
 Side 2 forced transition at x/c =  1.0000   81

   1   rms: 0.9229E-02   max: -.7544E-01   D at    3  2   RLX: 0.521
       a =  2.900      CL =  0.0115
      Cm = -0.0146     CD =  0.05942   =>   CDf =  0.02299    CDp =  0.03643

 Side 1 forced transition at x/c =  1.0000   81
 Side 2 forced transition at x/c =  1.0000   81

   2   rms: 0.4624E-02   max: -.3981E-01   D at    3  2
       a =  2.900      CL =  0.0132
      Cm = -0.0147     CD =  0.05952   =>   CDf =  0.02300    CDp =  0.03652

 Side 1 forced transition at x/c =  1.0000   81
 Side 2 forced transition at x/c =  1.0000   81

   3   rms: 0.6744E-04   max: -.6754E-03   D at    3  2
       a =  2.900      CL =  0.0132
      Cm = -0.0147     CD =  0.05951   =>   CDf =  0.02302    CDp =  0.03649
[...]
       a =  8.050      CL =  0.3323
      Cm = -0.0350     CD =  0.09508   =>   CDf =  0.02341    CDp =  0.07168

 Side 1 forced transition at x/c =  1.0000   86
 Side 2 forced transition at x/c =  1.0000   76

   3   rms: 0.5548E-04   max: -.5325E-03   D at    3  1
       a =  8.050      CL =  0.3323
      Cm = -0.0350     CD =  0.09503   =>   CDf =  0.02340    CDp =  0.07164
 plradd ia,ip,cpol          162          85  7.56786242E-02

 Point added to stored polar  1
 Save file unspecified or not available
 Dump file unspecified or not available

.OPERva   c>  
.OPERva   c>  
.OPERva   c>   Calculating wake trajectory ...
 Calculating source influence matrix ...

 Solving BL system ...

 Side 1 forced transition at x/c =  1.0000   86
 Side 2 forced transition at x/c =  1.0000   76

   1   rms: 0.6947E-02   max: -.7193E-01   D at    3  1   RLX: 0.395
       a =  8.100      CL =  0.3333
      Cm = -0.0351     CD =  0.09525   =>   CDf =  0.02340    CDp =  0.07185

 Side 1 forced transition at x/c =  1.0000   86
 Side 2 forced transition at x/c =  1.0000   76

   2   rms: 0.4220E-02   max: -.4330E-01   D at    3  1
       a =  8.100      CL =  0.3349
      Cm = -0.0352     CD =  0.09555   =>   CDf =  0.02339    CDp =  0.07217

 Side 1 forced transition at x/c =  1.0000   86
 Side 2 forced transition at x/c =  1.0000   76

   3   rms: 0.4815E-04   max: 0.4456E-03   D at   92  2
       a =  8.100      CL =  0.3349
      Cm = -0.0352     CD =  0.09550   =>   CDf =  0.02337    CDp =  0.07213
 plradd ia,ip,cpol          163          85  7.56786242E-02

 Point added to stored polar  1
 Save file unspecified or not available
 Dump file unspecified or not available

.OPERva   c>  
.OPERva   c>  
.OPERva   c>   Calculating wake trajectory ...
 Calculating source influence matrix ...

 Solving BL system ...

 Side 1 forced transition at x/c =  1.0000   86
 Side 2 forced transition at x/c =  1.0000   76

   1   rms: 0.6689E-02   max: 0.5915E-01   D at    3  1   RLX: 0.394
       a =  8.150      CL =  0.3359
      Cm = -0.0353     CD =  0.09572   =>   CDf =  0.02338    CDp =  0.07234

 Side 1 forced transition at x/c =  1.0000   86
 Side 2 forced transition at x/c =  1.0000   76

   2   rms: 0.3982E-02   max: 0.3404E-01   D at    3  1
       a =  8.150      CL =  0.3375
      Cm = -0.0355     CD =  0.09603   =>   CDf =  0.02337    CDp =  0.07266

 Side 1 forced transition at x/c =  1.0000   86
 Side 2 forced transition at x/c =  1.0000   76

   3   rms: 0.6803E-04   max: -.7445E-03   D at    3  1
       a =  8.150      CL =  0.3375
      Cm = -0.0355     CD =  0.09598   =>   CDf =  0.02335    CDp =  0.07262
 plradd ia,ip,cpol          164          85  7.56786242E-02

 Point added to stored polar  1
 Save file unspecified or not available
 Dump file unspecified or not available

.OPERva   c>  
.OPERva   c>  
.OPERva   c>   Calculating wake trajectory ...
 Calculating source influence matrix ...

 Solving BL system ...

 Side 1 forced transition at x/c =  1.0000   86
 Side 2 forced transition at x/c =  1.0000   76

   1   rms: 0.5284E-02   max: 0.8342E-02   D at   96  2   RLX: 0.393
       a =  8.200      CL =  0.3385
      Cm = -0.0356     CD =  0.09620   =>   CDf =  0.02336    CDp =  0.07284

 Side 1 forced transition at x/c =  1.0000   86
 Side 2 forced transition at x/c =  1.0000   76

   2   rms: 0.3210E-02   max: 0.5287E-02   D at   96  2
       a =  8.200      CL =  0.3401
      Cm = -0.0357     CD =  0.09651   =>   CDf =  0.02335    CDp =  0.07316

 Side 1 forced transition at x/c =  1.0000   86
 Side 2 forced transition at x/c =  1.0000   76

   3   rms: 0.4768E-04   max: 0.4995E-03   D at   92  2
       a =  8.200      CL =  0.3401
      Cm = -0.0357     CD =  0.09646   =>   CDf =  0.02333    CDp =  0.07312
 plradd ia,ip,cpol          165          85  7.56786242E-02

 Point added to stored polar  1
 Save file unspecified or not available
 Dump file unspecified or not available

.OPERva   c>  
.OPERva   c>  
.OPERva   c>   Calculating wake trajectory ...
 Calculating source influence matrix ...

 Solving BL system ...

 Side 1 forced transition at x/c =  1.0000   86
 Side 2 forced transition at x/c =  1.0000   76

   1   rms: 0.7940E-02   max: 0.8013E-01   D at    3  1   RLX: 0.392
       a =  8.250      CL =  0.3410
      Cm = -0.0358     CD =  0.09668   =>   CDf =  0.02334    CDp =  0.07334

 Side 1 forced transition at x/c =  1.0000   86
 Side 2 forced transition at x/c =  1.0000   76

   2   rms: 0.4659E-02   max: 0.4545E-01   D at    3  1
       a =  8.250      CL =  0.3426
      Cm = -0.0359     CD =  0.09699   =>   CDf =  0.02333    CDp =  0.07366

 Side 1 forced transition at x/c =  1.0000   86
 Side 2 forced transition at x/c =  1.0000   76

   3   rms: 0.9228E-04   max: -.1061E-02   D at    3  1
       a =  8.250      CL =  0.3426
      Cm = -0.0359     CD =  0.09694   =>   CDf =  0.02331    CDp =  0.07362
 plradd ia,ip,cpol          166          85  7.56786242E-02

 Point added to stored polar  1
 Save file unspecified or not available
 Dump file unspecified or not available

.OPERva   c>  
.OPERva   c>  
.OPERva   c>   Calculating wake trajectory ...
 Calculating source influence matrix ...

 Solving BL system ...

 Side 1 forced transition at x/c =  1.0000   86
 Side 2 forced transition at x/c =  1.0000   76

   1   rms: 0.6322E-02   max: 0.6233E-01   D at    3  2   RLX: 0.391
       a =  8.300      CL =  0.3436
      Cm = -0.0360     CD =  0.09716   =>   CDf =  0.02332    CDp =  0.07384

 Side 1 forced transition at x/c =  1.0000   86
 Side 2 forced transition at x/c =  1.0000   76

   2   rms: 0.3857E-02   max: 0.3844E-01   D at    3  2
       a =  8.300      CL =  0.3452
      Cm = -0.0362     CD =  0.09747   =>   CDf =  0.02331    CDp =  0.07417

 Side 1 forced transition at x/c =  1.0000   86
 Side 2 forced transition at x/c =  1.0000   76

   3   rms: 0.5138E-04   max: 0.4961E-03   D at   92  2
       a =  8.300      CL =  0.3452
      Cm = -0.0362     CD =  0.09742   =>   CDf =  0.02329    CDp =  0.07413
 plradd ia,ip,cpol          167          85  7.56786242E-02

 Point added to stored polar  1
 Save file unspecified or not available
 Dump file unspecified or not available

.OPERva   c>  
.OPERva   c>  
.OPERva   c>   Calculating wake trajectory ...
 Calculating source influence matrix ...

 Solving BL system ...

 Side 1 forced transition at x/c =  1.0000   86
 Side 2 forced transition at x/c =  1.0000   76

   1   rms: 0.8909E-02   max: -.1057E+00   D at    3  2   RLX: 0.390
       a =  8.350      CL =  0.3461
      Cm = -0.0363     CD =  0.09764   =>   CDf =  0.02329    CDp =  0.07435

 Side 1 forced transition at x/c =  1.0000   86
 Side 2 forced transition at x/c =  1.0000   76

   2   rms: 0.5664E-02   max: -.6849E-01   D at    3  2
       a =  8.350      CL =  0.3477
      Cm = -0.0364     CD =  0.09796   =>   CDf =  0.02328    CDp =  0.07468

 Side 1 forced transition at x/c =  1.0000   86
 Side 2 forced transition at x/c =  1.0000   76

   3   rms: 0.1478E-03   max: -.2088E-02   D at    3  2
       a =  8.350      CL =  0.3477
      Cm = -0.0364     CD =  0.09791   =>   CDf =  0.02327    CDp =  0.07464

 Side 1 forced transition at x/c =  1.0000   86
 Side 2 forced transition at x/c =  1.0000   76

   4   rms: 0.1210E-05   max: -.1248E-04   D at    3  2
       a =  8.350      CL =  0.3477
      Cm = -0.0364     CD =  0.09791   =>   CDf =  0.02327    CDp =  0.07464
 plradd ia,ip,cpol          168          85  7.56786242E-02

 Point added to stored polar  1
 Save file unspecified or not available
 Dump file unspecified or not available

.OPERva   c>  
.OPERva   c>  
.OPERva   c>   Calculating wake trajectory ...
 Calculating source influence matrix ...

 Solving BL system ...

 Side 1 forced transition at x/c =  1.0000   86
 Side 2 forced transition at x/c =  1.0000   76

   1   rms: 0.6570E-02   max: -.4754E-01   D at    4  1   RLX: 0.389
       a =  8.400      CL =  0.3487
      Cm = -0.0365     CD =  0.09813   =>   CDf =  0.02327    CDp =  0.07486

 Side 1 forced transition at x/c =  1.0000   86
 Side 2 forced transition at x/c =  1.0000   76

   2   rms: 0.3991E-02   max: -.2872E-01   D at    4  1
       a =  8.400      CL =  0.3503
      Cm = -0.0367     CD =  0.09845   =>   CDf =  0.02326    CDp =  0.07518

 Side 1 forced transition at x/c =  1.0000   86
 Side 2 forced transition at x/c =  1.0000   76

   3   rms: 0.5546E-04   max: 0.5188E-03   D at   92  2
       a =  8.400      CL =  0.3503
      Cm = -0.0367     CD =  0.09839   =>   CDf =  0.02325    CDp =  0.07514
 plradd ia,ip,cpol          169          85  4.69178669E-02

 Point added to stored polar  1
 Save file unspecified or not available
 Dump file unspecified or not available

.OPERva   c>  
.OPERva   c>  
.OPERva   c>   Calculating wake trajectory ...
 Calculating source influence matrix ...

 Solving BL system ...

 Side 1 forced transition at x/c =  1.0000   86
 Side 2 forced transition at x/c =  1.0000   76

   1   rms: 0.6505E-02   max: 0.6040E-01   D at    4  1   RLX: 0.388
       a =  8.450      CL =  0.3512
      Cm = -0.0368     CD =  0.09862   =>   CDf =  0.02325    CDp =  0.07537

 Side 1 forced transition at x/c =  1.0000   86
 Side 2 forced transition at x/c =  1.0000   76

   2   rms: 0.3955E-02   max: 0.3627E-01   D at    4  1
       a =  8.450      CL =  0.3528
      Cm = -0.0369     CD =  0.09894   =>   CDf =  0.02324    CDp =  0.07570

 Side 1 forced transition at x/c =  1.0000   86
 Side 2 forced transition at x/c =  1.0000   76

   3   rms: 0.6032E-04   max: 0.5047E-03   D at   92  2
       a =  8.450      CL =  0.3528
      Cm = -0.0369     CD =  0.09888   =>   CDf =  0.02323    CDp =  0.07566
 plradd ia,ip,cpol          170          85  4.69178669E-02

 Point added to stored polar  1
 Save file unspecified or not available
 Dump file unspecified or not available

.OPERva   c>  
.OPERva   c>  
.OPERva   c>   Calculating wake trajectory ...
 Calculating source influence matrix ...

 Solving BL system ...

 Side 1 forced transition at x/c =  1.0000   86
 Side 2 forced transition at x/c =  1.0000   76

   1   rms: 0.5333E-02   max: 0.8399E-02   D at   96  2   RLX: 0.386
       a =  8.500      CL =  0.3537
      Cm = -0.0370     CD =  0.09911   =>   CDf =  0.02323    CDp =  0.07588

 Side 1 forced transition at x/c =  1.0000   86
 Side 2 forced transition at x/c =  1.0000   76

   2   rms: 0.3270E-02   max: 0.5400E-02   D at   96  2
       a =  8.500      CL =  0.3553
      Cm = -0.0372     CD =  0.09943   =>   CDf =  0.02322    CDp =  0.07622

 Side 1 forced transition at x/c =  1.0000   86
 Side 2 forced transition at x/c =  1.0000   76

   3   rms: 0.4875E-04   max: 0.4962E-03   D at   92  2
       a =  8.500      CL =  0.3553
      Cm = -0.0372     CD =  0.09937   =>   CDf =  0.02320    CDp =  0.07617
 plradd ia,ip,cpol          171          85  4.69178669E-02

 Point added to stored polar  1
 Save file unspecified or not available
 Dump file unspecified or not available

.OPERva   c>  
.OPERva   c>  
.OPERva   c>   Calculating wake trajectory ...
 Calculating source influence matrix ...

 Solving BL system ...

 Side 1 forced transition at x/c =  1.0000   86
 Side 2 forced transition at x/c =  1.0000   76

   1   rms: 0.5863E-02   max: -.2899E-01   D at    3  2   RLX: 0.385
       a =  8.550      CL =  0.3562
      Cm = -0.0373     CD =  0.09960   =>   CDf =  0.02320    CDp =  0.07640

 Side 1 forced transition at x/c =  1.0000   86
 Side 2 forced transition at x/c =  1.0000   76

   2   rms: 0.3611E-02   max: -.1844E-01   D at    3  2
       a =  8.550      CL =  0.3578
      Cm = -0.0374     CD =  0.09993   =>   CDf =  0.02319    CDp =  0.07673

 Side 1 forced transition at x/c =  1.0000   86
 Side 2 forced transition at x/c =  1.0000   76

   3   rms: 0.5724E-04   max: 0.4948E-03   D at   92  2
       a =  8.550      CL =  0.3578
      Cm = -0.0374     CD =  0.09987   =>   CDf =  0.02318    CDp =  0.07669
 plradd ia,ip,cpol          172          85  4.69178669E-02

 Point added to stored polar  1
 Save file unspecified or not available
 Dump file unspecified or not available

.OPERva   c>  
.OPERva   c>  
.OPERva   c>   Calculating wake trajectory ...
 Calculating source influence matrix ...

 Solving BL system ...

 Side 1 forced transition at x/c =  1.0000   86
 Side 2 forced transition at x/c =  1.0000   76

   1   rms: 0.5567E-02   max: -.1982E-01   D at    7  2   RLX: 0.384
       a =  8.600      CL =  0.3587
      Cm = -0.0375     CD =  0.10010   =>   CDf =  0.02318    CDp =  0.07692

 Side 1 forced transition at x/c =  1.0000   86
 Side 2 forced transition at x/c =  1.0000   76

   2   rms: 0.3434E-02   max: -.1233E-01   D at    7  2
       a =  8.600      CL =  0.3603
      Cm = -0.0377     CD =  0.10043   =>   CDf =  0.02317    CDp =  0.07726

 Side 1 forced transition at x/c =  1.0000   86
 Side 2 forced transition at x/c =  1.0000   76

   3   rms: 0.5392E-04   max: 0.4856E-03   D at   92  2
       a =  8.600      CL =  0.3603
      Cm = -0.0377     CD =  0.10037   =>   CDf =  0.02316    CDp =  0.07721
 plradd ia,ip,cpol          173          85  4.69178669E-02

 Point added to stored polar  1
 Save file unspecified or not available
 Dump file unspecified or not available

.OPERva   c>  
.OPERva   c>  
.OPERva   c>   Calculating wake trajectory ...
 Calculating source influence matrix ...

 Solving BL system ...

 Side 1 forced transition at x/c =  1.0000   86
 Side 2 forced transition at x/c =  1.0000   76

   1   rms: 0.5752E-02   max: 0.4772E-01   D at    4  2   RLX: 0.383
       a =  8.650      CL =  0.3612
      Cm = -0.0378     CD =  0.10060   =>   CDf =  0.02316    CDp =  0.07744

 Side 1 forced transition at x/c =  1.0000   86
 Side 2 forced transition at x/c =  1.0000   76

   2   rms: 0.3546E-02   max: 0.2965E-01   D at    4  2
       a =  8.650      CL =  0.3628
      Cm = -0.0379     CD =  0.10093   =>   CDf =  0.02315    CDp =  0.07778

 Side 1 forced transition at x/c =  1.0000   86
 Side 2 forced transition at x/c =  1.0000   76

   3   rms: 0.4938E-04   max: 0.4804E-03   D at   92  2
       a =  8.650      CL =  0.3628
      Cm = -0.0379     CD =  0.10087   =>   CDf =  0.02313    CDp =  0.07774
 plradd ia,ip,cpol          174          85  3.95206548E-02

 Point added to stored polar  1
 Save file unspecified or not available
 Dump file unspecified or not available

.OPERva   c>  
.OPERva   c>  
.OPERva   c>   Calculating wake trajectory ...
 Calculating source influence matrix ...

 Solving BL system ...

 Side 1 forced transition at x/c =  1.0000   86
 Side 2 forced transition at x/c =  1.0000   76

   1   rms: 0.5692E-02   max: 0.3275E-01   D at    3  2   RLX: 0.382
       a =  8.700      CL =  0.3637
      Cm = -0.0380     CD =  0.10110   =>   CDf =  0.02313    CDp =  0.07796

 Side 1 forced transition at x/c =  1.0000   86
 Side 2 forced transition at x/c =  1.0000   76

   2   rms: 0.3523E-02   max: 0.2068E-01   D at    3  2
       a =  8.700      CL =  0.3652
      Cm = -0.0382     CD =  0.10143   =>   CDf =  0.02312    CDp =  0.07831

 Side 1 forced transition at x/c =  1.0000   86
 Side 2 forced transition at x/c =  1.0000   76

   3   rms: 0.5583E-04   max: 0.5018E-03   D at   92  2
       a =  8.700      CL =  0.3652
      Cm = -0.0382     CD =  0.10137   =>   CDf =  0.02311    CDp =  0.07826
 plradd ia,ip,cpol          175          85  3.95206548E-02

 Point added to stored polar  1
 Save file unspecified or not available
 Dump file unspecified or not available

.OPERva   c>  
.OPERva   c>  
.OPERva   c>   Calculating wake trajectory ...
 Calculating source influence matrix ...

 Solving BL system ...

 Side 1 forced transition at x/c =  1.0000   86
 Side 2 forced transition at x/c =  1.0000   76

   1   rms: 0.5820E-02   max: 0.4157E-01   D at    3  1   RLX: 0.381
       a =  8.750      CL =  0.3661
      Cm = -0.0383     CD =  0.10160   =>   CDf =  0.02311    CDp =  0.07849

 Side 1 forced transition at x/c =  1.0000   86
 Side 2 forced transition at x/c =  1.0000   76

   2   rms: 0.3578E-02   max: 0.2499E-01   D at    3  1
       a =  8.750      CL =  0.3677
      Cm = -0.0384     CD =  0.10193   =>   CDf =  0.02310    CDp =  0.07883

 Side 1 forced transition at x/c =  1.0000   86
 Side 2 forced transition at x/c =  1.0000   76

   3   rms: 0.5993E-04   max: 0.5117E-03   D at   92  2
       a =  8.750      CL =  0.3677
      Cm = -0.0384     CD =  0.10188   =>   CDf =  0.02308    CDp =  0.07879
 plradd ia,ip,cpol          176          85  3.95206548E-02

 Point added to stored polar  1
 Save file unspecified or not available
 Dump file unspecified or not available

.OPERva   c>  
.OPERva   c>  
.OPERva   c>   Calculating wake trajectory ...
 Calculating source influence matrix ...

 Solving BL system ...

 Side 1 forced transition at x/c =  1.0000   86
 Side 2 forced transition at x/c =  1.0000   76

   1   rms: 0.5654E-02   max: -.4041E-01   D at    5  2   RLX: 0.380
       a =  8.800      CL =  0.3686
      Cm = -0.0385     CD =  0.10211   =>   CDf =  0.02309    CDp =  0.07902

 Side 1 forced transition at x/c =  1.0000   86
 Side 2 forced transition at x/c =  1.0000   76

   2   rms: 0.3514E-02   max: -.2542E-01   D at    5  2
       a =  8.800      CL =  0.3701
      Cm = -0.0387     CD =  0.10245   =>   CDf =  0.02308    CDp =  0.07937

 Side 1 forced transition at x/c =  1.0000   86
 Side 2 forced transition at x/c =  1.0000   76

   3   rms: 0.6272E-04   max: 0.5174E-03   D at   92  2
       a =  8.800      CL =  0.3701
      Cm = -0.0387     CD =  0.10239   =>   CDf =  0.02306    CDp =  0.07933
 plradd ia,ip,cpol          177          85  3.95206548E-02

 Point added to stored polar  1
 Save file unspecified or not available
 Dump file unspecified or not available

.OPERva   c>  
.OPERva   c>  
.OPERva   c>   Calculating wake trajectory ...
 Calculating source influence matrix ...

 Solving BL system ...

 Side 1 forced transition at x/c =  1.0000   86
 Side 2 forced transition at x/c =  1.0000   76

   1   rms: 0.5579E-02   max: -.2171E-01   D at    7  2   RLX: 0.379
       a =  8.850      CL =  0.3710
      Cm = -0.0388     CD =  0.10262   =>   CDf =  0.02306    CDp =  0.07955

 Side 1 forced transition at x/c =  1.0000   86
 Side 2 forced transition at x/c =  1.0000   76

   2   rms: 0.3481E-02   max: -.1346E-01   D at    7  2
       a =  8.850      CL =  0.3726
      Cm = -0.0389     CD =  0.10296   =>   CDf =  0.02233    CDp =  0.08063

 Side 1 forced transition at x/c =  1.0000   87
 Side 2 forced transition at x/c =  1.0000   75

   3   rms: 0.8586E-02   max: 0.1556E+00   D at    2  1
       a =  8.850      CL =  0.3726
      Cm = -0.0389     CD =  0.10290   =>   CDf =  0.02301    CDp =  0.07989

 Side 1 forced transition at x/c =  1.0000   87
 Side 2 forced transition at x/c =  1.0000   75

   4   rms: 0.5301E-03   max: -.7525E-02   T at    3  1
       a =  8.850      CL =  0.3726
      Cm = -0.0389     CD =  0.10290   =>   CDf =  0.02301    CDp =  0.07988

 Side 1 forced transition at x/c =  1.0000   87
 Side 2 forced transition at x/c =  1.0000   75

   5   rms: 0.4809E-04   max: 0.6300E-03   D at    4  1
       a =  8.850      CL =  0.3726
      Cm = -0.0389     CD =  0.10290   =>   CDf =  0.02301    CDp =  0.07988
 plradd ia,ip,cpol          178          86  3.95206548E-02

 Point added to stored polar  1
 Save file unspecified or not available
 Dump file unspecified or not available

.OPERva   c>  
.OPERva   c>  
.OPERva   c>   Calculating wake trajectory ...
 Calculating source influence matrix ...

 Solving BL system ...

 Side 1 forced transition at x/c =  1.0000   87
 Side 2 forced transition at x/c =  1.0000   75

   1   rms: 0.6183E-02   max: -.4630E-01   D at    2  2   RLX: 0.378
       a =  8.900      CL =  0.3735
      Cm = -0.0390     CD =  0.10313   =>   CDf =  0.02301    CDp =  0.08012

 Side 1 forced transition at x/c =  1.0000   87
 Side 2 forced transition at x/c =  1.0000   75

