
 ===================================================
  XFOIL Version 6.99
  Copyright (C) 2000   Mark Drela, Harold Youngren

  This software comes with ABSOLUTELY NO WARRANTY,
    subject to the GNU General Public License.

  Caveat computor
 ===================================================

 File  xfoil.def  not found

   QUIT    Exit program

  .OPER    Direct operating point(s)
  .MDES    Complex mapping design routine
  .QDES    Surface speed design routine
  .GDES    Geometry design routine

   SAVE f  Write airfoil to labeled coordinate file
   PSAV f  Write airfoil to plain coordinate file
   ISAV f  Write airfoil to ISES coordinate file
   MSAV f  Write airfoil to MSES coordinate file
   REVE    Reverse written-airfoil node ordering

   LOAD f  Read buffer airfoil from coordinate file
   NACA i  Set NACA 4,5-digit airfoil and buffer airfoil
   INTE    Set buffer airfoil by interpolating two airfoils
   NORM    Buffer airfoil normalization toggle
   XYCM rr Change CM reference location, currently  0.25000 0.00000

   BEND    Display structural properties of current airfoil

   PCOP    Set current-airfoil panel nodes directly from buffer airfoil points
   PANE    Set current-airfoil panel nodes ( 160 ) based on curvature
  .PPAR    Show/change paneling

  .PLOP    Plotting options

   WDEF f  Write  current-settings file
   RDEF f  Reread current-settings file
   NAME s  Specify new airfoil name
   NINC    Increment name version number

   Z       Zoom    | (available in all menus)
   U       Unzoom  | 

 XFOIL   c>  
 Labeled airfoil file.  Name:  SG6040                                          

 Number of input coordinate points:  81
 Counterclockwise ordering
 Max thickness =     0.160016  at x =   0.353
 Max camber    =     0.025156  at x =   0.582

  LE  x,y  =   0.00009  -0.00040  |   Chord =   0.99991
  TE  x,y  =   1.00000   0.00000  |

 Current airfoil nodes set from buffer airfoil nodes (  81 )

 XFOIL   c>  
  F  disk file
  C  current airfoil  SG6040                                          

  Select source of airfoil "0" ( F C ):  
Enter filename   s>  
  Select source of airfoil "1" ( F C ):  
Enter filename   s>  
 airfoil "0":  SG6040                                          
 airfoil "1":  SG6040                                          

Specify interpolating fraction  0...1   r>   Max thickness =     0.160016  at x =   0.353
 Max camber    =     0.025156  at x =   0.582

Enter new airfoil name   s>  
 Result has been placed in buffer airfoil
 Execute PCOP or PANE to set new current airfoil

 XFOIL   c>  
 Sharp trailing edge

 Paneling parameters used...
   Number of panel nodes       160
   Panel bunching parameter    1.000
   TE/LE panel density ratio   0.150
   Refined-area/LE panel density ratio    0.200
   Top    side refined area x/c limits  1.000 1.000
   Bottom side refined area x/c limits  1.000 1.000

 XFOIL   c>  
 XFOIL   c>  
 XFOIL   c>  
.OPERi   c>  
.OPERi   c>  
 Sonic Cp =   -550.04      Sonic Q/Qinf =    26.096


.OPERi   c>  
 M  =    0.0350
 Re =     10000

.OPERv   c>  
 Polar  1 newly created for accumulation
 Airfoil archived with polar: BlendedAirfoil                                  

Enter  polar save filename  OR  <return> for no file   s>  
 Polar save file will NOT be written

Enter  polar dump filename  OR  <return> for no file   s>  
 Polar dump file will NOT be written

 Polar accumulation enabled

.OPERva   c>   Calculating unit vorticity distributions ...
 Calculating wake trajectory ...
 Calculating source influence matrix ...

 Solving BL system ...

 Initializing BL ...
    side            1  ...
 MRCHUE: Inverse mode at  53     Hk =   3.800
 MRCHUE: Inverse mode at  54     Hk =   3.907
 MRCHUE: Inverse mode at  55     Hk =   4.011
 MRCHUE: Inverse mode at  56     Hk =   4.113
 MRCHUE: Inverse mode at  57     Hk =   4.213
 MRCHUE: Inverse mode at  58     Hk =   4.311
 MRCHUE: Inverse mode at  59     Hk =   4.407
 MRCHUE: Inverse mode at  60     Hk =   4.502
 MRCHUE: Inverse mode at  61     Hk =   4.595
 MRCHUE: Inverse mode at  62     Hk =   4.686
 MRCHUE: Inverse mode at  63     Hk =   4.776
 MRCHUE: Inverse mode at  64     Hk =   4.865
 MRCHUE: Inverse mode at  65     Hk =   4.952
 MRCHUE: Inverse mode at  66     Hk =   5.039
 MRCHUE: Convergence failed at  67  side 1    Res =  0.2352E+01
 MRCHUE: Inverse mode at  68     Hk =   5.124
 MRCHUE: Inverse mode at  69     Hk =   5.209
 MRCHUE: Inverse mode at  70     Hk =   5.292
 MRCHUE: Convergence failed at  71  side 1    Res =  0.1596E+01
 MRCHUE: Inverse mode at  72     Hk =   5.373
 MRCHUE: Inverse mode at  73     Hk =   5.453
 MRCHUE: Inverse mode at  74     Hk =   5.532
 MRCHUE: Inverse mode at  75     Hk =   5.609
 MRCHUE: Convergence failed at  76  side 1    Res =  0.2109E+01
 MRCHUE: Inverse mode at  77     Hk =   5.681
 MRCHUE: Convergence failed at  78  side 1    Res =  0.1852E+01
 MRCHUE: Inverse mode at  79     Hk =   5.746
 MRCHUE: Convergence failed at  80  side 1    Res =  0.2492E+01
 MRCHUE: Convergence failed at  81  side 1    Res =  0.2230E+01
 MRCHUE: Convergence failed at  82  side 1    Res =  0.2380E+01
 MRCHUE: Inverse mode at  83     Hk =   5.773
    side            2  ...
 MRCHUE: Inverse mode at  49     Hk =   3.800
 MRCHUE: Inverse mode at  50     Hk =   3.900
 MRCHUE: Inverse mode at  51     Hk =   3.999
 MRCHUE: Inverse mode at  52     Hk =   4.096
 MRCHUE: Inverse mode at  53     Hk =   4.193
 MRCHUE: Inverse mode at  54     Hk =   4.287
 MRCHUE: Inverse mode at  55     Hk =   4.381
 MRCHUE: Inverse mode at  56     Hk =   4.473
 MRCHUE: Convergence failed at  57  side 2    Res =  0.3396E+01
 MRCHUE: Inverse mode at  58     Hk =   4.562
 MRCHUE: Inverse mode at  59     Hk =   4.649
 MRCHUE: Inverse mode at  60     Hk =   4.733
 MRCHUE: Convergence failed at  61  side 2    Res =  0.2540E+01
 MRCHUE: Inverse mode at  62     Hk =   4.815
 MRCHUE: Inverse mode at  63     Hk =   4.894
 MRCHUE: Inverse mode at  64     Hk =   4.972
 MRCHUE: Inverse mode at  65     Hk =   5.048
 MRCHUE: Convergence failed at  65  side 2    Res =  0.3959E+00
 MRCHUE: Inverse mode at  66     Hk =   5.047
 MRCHUE: Inverse mode at  67     Hk =   5.120
 MRCHUE: Inverse mode at  68     Hk =   5.192
 MRCHUE: Inverse mode at  69     Hk =   5.262
 MRCHUE: Convergence failed at  70  side 2    Res =  0.1571E+01
 MRCHUE: Inverse mode at  71     Hk =   5.329
 MRCHUE: Inverse mode at  72     Hk =   5.394
 MRCHUE: Inverse mode at  73     Hk =   5.456
 MRCHUE: Inverse mode at  74     Hk =   5.516
 MRCHUE: Inverse mode at  75     Hk =   5.572
 MRCHUE: Convergence failed at  76  side 2    Res =  0.2002E+01
 MRCHUE: Inverse mode at  77     Hk =   5.619
 MRCHUE: Convergence failed at  78  side 2    Res =  0.1912E+01
 MRCHUE: Inverse mode at  79     Hk =   5.644
 MRCHUE: Inverse mode at  81     Hk =   4.920
 MRCHUE: Inverse mode at  82     Hk =   4.360
 MRCHUE: Inverse mode at  83     Hk =   3.937
 MRCHUE: Inverse mode at  84     Hk =   3.604
 MRCHUE: Inverse mode at  85     Hk =   3.332
 MRCHUE: Inverse mode at  86     Hk =   3.105

 MRCHDU: Convergence failed at  76  side 1    Res =  0.6078E+01
 MRCHDU: Convergence failed at  77  side 1    Res =  0.6670E+01
 MRCHDU: Convergence failed at  78  side 1    Res =  0.5951E+01
 MRCHDU: Convergence failed at  79  side 1    Res =  0.6457E+01
 MRCHDU: Convergence failed at  80  side 1    Res =  0.9040E+01
 MRCHDU: Convergence failed at  81  side 1    Res =  0.3065E+02
 MRCHDU: Convergence failed at  82  side 1    Res =  0.6856E+02
 MRCHDU: Convergence failed at  83  side 1    Res =  0.4241E+02
 MRCHDU: Convergence failed at  65  side 2    Res =  0.2694E+01
 MRCHDU: Convergence failed at  66  side 2    Res =  0.2885E+01
 MRCHDU: Convergence failed at  67  side 2    Res =  0.3065E+01
 MRCHDU: Convergence failed at  68  side 2    Res =  0.3287E+01
 MRCHDU: Convergence failed at  69  side 2    Res =  0.3563E+01
 MRCHDU: Convergence failed at  70  side 2    Res =  0.3956E+01
 MRCHDU: Convergence failed at  71  side 2    Res =  0.4208E+01
 MRCHDU: Convergence failed at  72  side 2    Res =  0.4436E+01
 MRCHDU: Convergence failed at  73  side 2    Res =  0.4724E+01
 MRCHDU: Convergence failed at  74  side 2    Res =  0.4997E+01
 MRCHDU: Convergence failed at  75  side 2    Res =  0.5265E+01
 MRCHDU: Convergence failed at  76  side 2    Res =  0.6426E+01
 MRCHDU: Convergence failed at  77  side 2    Res =  0.6682E+01
 MRCHDU: Convergence failed at  78  side 2    Res =  0.7853E+01
 MRCHDU: Convergence failed at  79  side 2    Res =  0.6582E+01
 Side 1 forced transition at x/c =  1.0000   83
 Side 2 forced transition at x/c =  1.0000   79
 idif Ue xi dudx           2  0.31395167      4.26614285E-03   73.591461    
 Uenew xinew           3  0.17473635      2.37441063E-03

   1   rms: 0.7050E+00   max: 0.4510E+01   D at   87  2   RLX: 0.333
       a =  0.000      CL =  0.2817
      Cm = -0.0797     CD =  0.01853   =>   CDf =  0.02532    CDp = -0.00679

 Side 1 forced transition at x/c =  1.0000   81
 Side 2 forced transition at x/c =  1.0000   81
 idif Ue xi dudx           2  0.37836355      6.06548786E-03   62.379738    
 Uenew xinew           3  0.25420800      4.07516956E-03

   2   rms: 0.4065E+00   max: 0.1696E+01   D at   91  2   RLX: 0.885
       a =  0.000      CL = -0.1030
      Cm = -0.0116     CD =  0.03742   =>   CDf =  0.02459    CDp =  0.01283

 MRCHDU: Convergence failed at  92  side 2    Res =  0.4335E+01
 MRCHDU: Convergence failed at  93  side 2    Res =  0.3955E+01
 MRCHDU: Convergence failed at  94  side 2    Res =  0.4103E+01
 MRCHDU: Convergence failed at  95  side 2    Res =  0.2120E+02
 MRCHDU: Convergence failed at  96  side 2    Res =  0.6445E+01
 MRCHDU: Convergence failed at  97  side 2    Res =  0.2780E+01
 Side 1 forced transition at x/c =  1.0000   79
 Side 2 forced transition at x/c =  1.0000   83
 idif Ue xi dudx           1  0.13392042      2.61020660E-03   51.306442    
 Uenew xinew           2  2.31742989E-02  4.51683998E-04

   3   rms: 0.8800E-01   max: 0.5652E+00   C at   83  2
       a =  0.000      CL = -0.1384
      Cm = -0.0044     CD =  0.05194   =>   CDf =  0.02248    CDp =  0.02946

 Side 1 forced transition at x/c =  1.0000   78
 Side 2 forced transition at x/c =  1.0000   84

   4   rms: 0.1913E-01   max: 0.1478E+00   C at   84  2
       a =  0.000      CL = -0.1232
      Cm = -0.0067     CD =  0.05580   =>   CDf =  0.02175    CDp =  0.03404

 Side 1 forced transition at x/c =  1.0000   78
 Side 2 forced transition at x/c =  1.0000   84

   5   rms: 0.6268E-03   max: 0.3942E-02   D at   94  2
       a =  0.000      CL = -0.1229
      Cm = -0.0068     CD =  0.05569   =>   CDf =  0.02168    CDp =  0.03401

 Side 1 forced transition at x/c =  1.0000   78
 Side 2 forced transition at x/c =  1.0000   84

   6   rms: 0.6710E-05   max: 0.4861E-04   D at   98  2
       a =  0.000      CL = -0.1229
      Cm = -0.0068     CD =  0.05568   =>   CDf =  0.02168    CDp =  0.03400
 plradd ia,ip,cpol            1          77  5.41778430E-02

 Point added to stored polar  1
 Save file unspecified or not available
 Dump file unspecified or not available

.OPERva   c>  
.OPERva   c>  
.OPERva   c>   Calculating wake trajectory ...
 Calculating source influence matrix ...

 Solving BL system ...

 Side 1 forced transition at x/c =  1.0000   78
 Side 2 forced transition at x/c =  1.0000   84

   1   rms: 0.1164E-01   max: -.1205E+00   D at    3  2   RLX: 0.826
       a =  0.050      CL = -0.1232
      Cm = -0.0064     CD =  0.05564   =>   CDf =  0.02195    CDp =  0.03369

 Side 1 forced transition at x/c =  1.0000   79
 Side 2 forced transition at x/c =  1.0000   83

   2   rms: 0.9387E-02   max: -.1564E+00   D at    2  1
       a =  0.050      CL = -0.1232
      Cm = -0.0063     CD =  0.05563   =>   CDf =  0.02171    CDp =  0.03392

 Side 1 forced transition at x/c =  1.0000   79
 Side 2 forced transition at x/c =  1.0000   83

   3   rms: 0.7235E-03   max: -.9909E-02   D at    4  1
       a =  0.050      CL = -0.1232
      Cm = -0.0063     CD =  0.05563   =>   CDf =  0.02172    CDp =  0.03391

 Side 1 forced transition at x/c =  1.0000   79
 Side 2 forced transition at x/c =  1.0000   83

   4   rms: 0.1534E-05   max: 0.1674E-04   D at    6  1
       a =  0.050      CL = -0.1232
      Cm = -0.0063     CD =  0.05563   =>   CDf =  0.02172    CDp =  0.03391
 plradd ia,ip,cpol            2          78  5.41778430E-02

 Point added to stored polar  1
 Save file unspecified or not available
 Dump file unspecified or not available

.OPERva   c>  
.OPERva   c>  
.OPERva   c>   Calculating wake trajectory ...
 Calculating source influence matrix ...

 Solving BL system ...

 Side 1 forced transition at x/c =  1.0000   79
 Side 2 forced transition at x/c =  1.0000   83
 idif Ue xi dudx           1  0.11024172      2.31528282E-03   47.614796    
 Uenew xinew           2  7.46410573E-03  1.56760216E-04

   1   rms: 0.1659E-01   max: -.2406E+00   D at    3  1   RLX: 0.817
       a =  0.100      CL = -0.1236
      Cm = -0.0059     CD =  0.05559   =>   CDf =  0.02152    CDp =  0.03407

 Side 1 forced transition at x/c =  1.0000   78
 Side 2 forced transition at x/c =  1.0000   84

   2   rms: 0.8111E-02   max: -.1112E+00   D at    2  2
       a =  0.100      CL = -0.1236
      Cm = -0.0058     CD =  0.05558   =>   CDf =  0.02172    CDp =  0.03386

 Side 1 forced transition at x/c =  1.0000   78
 Side 2 forced transition at x/c =  1.0000   84

   3   rms: 0.5975E-03   max: -.9906E-02   D at    3  2
       a =  0.100      CL = -0.1236
      Cm = -0.0058     CD =  0.05558   =>   CDf =  0.02172    CDp =  0.03386

 Side 1 forced transition at x/c =  1.0000   78
 Side 2 forced transition at x/c =  1.0000   84

   4   rms: 0.9822E-06   max: -.6516E-05   D at    4  2
       a =  0.100      CL = -0.1236
      Cm = -0.0058     CD =  0.05558   =>   CDf =  0.02172    CDp =  0.03386
 plradd ia,ip,cpol            3          77  5.41778430E-02

 Point added to stored polar  1
 Save file unspecified or not available
 Dump file unspecified or not available

.OPERva   c>  
.OPERva   c>  
.OPERva   c>   Calculating wake trajectory ...
 Calculating source influence matrix ...

 Solving BL system ...

 Side 1 forced transition at x/c =  1.0000   78
 Side 2 forced transition at x/c =  1.0000   84

   1   rms: 0.1136E-01   max: -.1570E+00   D at    3  2   RLX: 0.808
       a =  0.150      CL = -0.1239
      Cm = -0.0054     CD =  0.05554   =>   CDf =  0.02199    CDp =  0.03355

 Side 1 forced transition at x/c =  1.0000   79
 Side 2 forced transition at x/c =  1.0000   83

   2   rms: 0.2233E-01   max: 0.4164E+00   T at    2  1
       a =  0.150      CL = -0.1239
      Cm = -0.0054     CD =  0.05553   =>   CDf =  0.02176    CDp =  0.03377

 Side 1 forced transition at x/c =  1.0000   79
 Side 2 forced transition at x/c =  1.0000   83

   3   rms: 0.8440E-02   max: -.1221E+00   D at    3  1
       a =  0.150      CL = -0.1239
      Cm = -0.0054     CD =  0.05553   =>   CDf =  0.02176    CDp =  0.03377

 Side 1 forced transition at x/c =  1.0000   79
 Side 2 forced transition at x/c =  1.0000   83

   4   rms: 0.2039E-03   max: 0.2466E-02   D at    6  1
       a =  0.150      CL = -0.1239
      Cm = -0.0054     CD =  0.05553   =>   CDf =  0.02176    CDp =  0.03377

 Side 1 forced transition at x/c =  1.0000   79
 Side 2 forced transition at x/c =  1.0000   83

   5   rms: 0.8728E-06   max: 0.1104E-04   D at    3  1
       a =  0.150      CL = -0.1239
      Cm = -0.0054     CD =  0.05553   =>   CDf =  0.02176    CDp =  0.03377
 plradd ia,ip,cpol            4          78  5.41778430E-02

 Point added to stored polar  1
 Save file unspecified or not available
 Dump file unspecified or not available

.OPERva   c>  
.OPERva   c>  
.OPERva   c>   Calculating wake trajectory ...
 Calculating source influence matrix ...

 Solving BL system ...

 Side 1 forced transition at x/c =  1.0000   79
 Side 2 forced transition at x/c =  1.0000   83

   1   rms: 0.1258E-01   max: -.1298E+00   D at    3  2   RLX: 0.800
       a =  0.200      CL = -0.1242
      Cm = -0.0050     CD =  0.05549   =>   CDf =  0.02176    CDp =  0.03373

 Side 1 forced transition at x/c =  1.0000   79
 Side 2 forced transition at x/c =  1.0000   83
 idif Ue xi dudx           1  9.56999809E-02  2.16317177E-03   44.240582    
 Uenew xinew           2  2.05681645E-04  4.64916229E-06

   2   rms: 0.3185E-02   max: -.3201E-01   D at    3  2
       a =  0.200      CL = -0.1242
      Cm = -0.0049     CD =  0.05548   =>   CDf =  0.02158    CDp =  0.03390

 Side 1 forced transition at x/c =  1.0000   78
 Side 2 forced transition at x/c =  1.0000   84

   3   rms: 0.4297E-02   max: -.7690E-01   T at    2  2
       a =  0.200      CL = -0.1242
      Cm = -0.0049     CD =  0.05548   =>   CDf =  0.02177    CDp =  0.03371

 Side 1 forced transition at x/c =  1.0000   78
 Side 2 forced transition at x/c =  1.0000   84

   4   rms: 0.1851E-03   max: -.2848E-02   D at    3  2
       a =  0.200      CL = -0.1242
      Cm = -0.0049     CD =  0.05548   =>   CDf =  0.02177    CDp =  0.03371

 Side 1 forced transition at x/c =  1.0000   78
 Side 2 forced transition at x/c =  1.0000   84

   5   rms: 0.8196E-04   max: 0.1265E-02   D at    3  2
       a =  0.200      CL = -0.1242
      Cm = -0.0049     CD =  0.05548   =>   CDf =  0.02177    CDp =  0.03371
 plradd ia,ip,cpol            5          77  5.41778430E-02

 Point added to stored polar  1
 Save file unspecified or not available
 Dump file unspecified or not available

.OPERva   c>  
.OPERva   c>  
.OPERva   c>   Calculating wake trajectory ...
 Calculating source influence matrix ...

 Solving BL system ...

 Side 1 forced transition at x/c =  1.0000   78
 Side 2 forced transition at x/c =  1.0000   84

   1   rms: 0.1304E-01   max: -.1702E+00   D at    3  2   RLX: 0.792
       a =  0.250      CL = -0.1245
      Cm = -0.0045     CD =  0.05544   =>   CDf =  0.02203    CDp =  0.03341

 Side 1 forced transition at x/c =  1.0000   79
 Side 2 forced transition at x/c =  1.0000   83

   2   rms: 0.5834E-02   max: 0.6708E-01   D at    3  2
       a =  0.250      CL = -0.1245
      Cm = -0.0044     CD =  0.05543   =>   CDf =  0.02180    CDp =  0.03363

 Side 1 forced transition at x/c =  1.0000   79
 Side 2 forced transition at x/c =  1.0000   83

   3   rms: 0.3127E-03   max: -.4164E-02   D at    4  1
       a =  0.250      CL = -0.1245
      Cm = -0.0044     CD =  0.05543   =>   CDf =  0.02180    CDp =  0.03363

 Side 1 forced transition at x/c =  1.0000   79
 Side 2 forced transition at x/c =  1.0000   83

   4   rms: 0.2160E-05   max: -.2953E-04   D at    3  1
       a =  0.250      CL = -0.1245
      Cm = -0.0044     CD =  0.05543   =>   CDf =  0.02180    CDp =  0.03363
 plradd ia,ip,cpol            6          78  5.41778430E-02

 Point added to stored polar  1
 Save file unspecified or not available
 Dump file unspecified or not available

.OPERva   c>  
.OPERva   c>  
.OPERva   c>   Calculating wake trajectory ...
 Calculating source influence matrix ...

 Solving BL system ...

 Side 1 forced transition at x/c =  1.0000   79
 Side 2 forced transition at x/c =  1.0000   83

   1   rms: 0.5616E-02   max: -.4914E-01   D at    4  1   RLX: 0.784
       a =  0.300      CL = -0.1247
      Cm = -0.0041     CD =  0.05540   =>   CDf =  0.02180    CDp =  0.03359

 Side 1 forced transition at x/c =  1.0000   79
 Side 2 forced transition at x/c =  1.0000   83

   2   rms: 0.1225E-02   max: -.1091E-01   D at    4  1
       a =  0.300      CL = -0.1247
      Cm = -0.0040     CD =  0.05538   =>   CDf =  0.02182    CDp =  0.03356

 Side 1 forced transition at x/c =  1.0000   79
 Side 2 forced transition at x/c =  1.0000   83

   3   rms: 0.2272E-04   max: 0.1744E-03   C at   83  2
       a =  0.300      CL = -0.1247
      Cm = -0.0040     CD =  0.05538   =>   CDf =  0.02182    CDp =  0.03356
 plradd ia,ip,cpol            7          78  5.41778430E-02

 Point added to stored polar  1
 Save file unspecified or not available
 Dump file unspecified or not available

.OPERva   c>  
.OPERva   c>  
.OPERva   c>   Calculating wake trajectory ...
 Calculating source influence matrix ...

 Solving BL system ...

 Side 1 forced transition at x/c =  1.0000   79
 Side 2 forced transition at x/c =  1.0000   83

   1   rms: 0.1133E-01   max: -.1261E+00   D at    3  1   RLX: 0.776
       a =  0.350      CL = -0.1249
      Cm = -0.0036     CD =  0.05535   =>   CDf =  0.02182    CDp =  0.03352

 Side 1 forced transition at x/c =  1.0000   79
 Side 2 forced transition at x/c =  1.0000   83

   2   rms: 0.2955E-02   max: -.3210E-01   D at    3  1
       a =  0.350      CL = -0.1249
      Cm = -0.0035     CD =  0.05533   =>   CDf =  0.02184    CDp =  0.03349

 Side 1 forced transition at x/c =  1.0000   79
 Side 2 forced transition at x/c =  1.0000   83

   3   rms: 0.3514E-04   max: -.2742E-03   T at    3  1
       a =  0.350      CL = -0.1249
      Cm = -0.0035     CD =  0.05533   =>   CDf =  0.02185    CDp =  0.03348
 plradd ia,ip,cpol            8          78  5.41778430E-02

 Point added to stored polar  1
 Save file unspecified or not available
 Dump file unspecified or not available

.OPERva   c>  
.OPERva   c>  
.OPERva   c>   Calculating wake trajectory ...
 Calculating source influence matrix ...

 Solving BL system ...

 Side 1 forced transition at x/c =  1.0000   79
 Side 2 forced transition at x/c =  1.0000   83

   1   rms: 0.2239E-01   max: -.2232E+00   D at    2  1   RLX: 0.769
       a =  0.400      CL = -0.1252
      Cm = -0.0032     CD =  0.05530   =>   CDf =  0.02185    CDp =  0.03345

 Side 1 forced transition at x/c =  1.0000   79
 Side 2 forced transition at x/c =  1.0000   83

   2   rms: 0.3498E-02   max: 0.4203E-01   D at    3  2
       a =  0.400      CL = -0.1252
      Cm = -0.0031     CD =  0.05529   =>   CDf =  0.02187    CDp =  0.03342

 Side 1 forced transition at x/c =  1.0000   79
 Side 2 forced transition at x/c =  1.0000   83

   3   rms: 0.4887E-04   max: 0.4221E-03   D at    5  2
       a =  0.400      CL = -0.1251
      Cm = -0.0031     CD =  0.05529   =>   CDf =  0.02187    CDp =  0.03342
 plradd ia,ip,cpol            9          78  5.41778430E-02

 Point added to stored polar  1
 Save file unspecified or not available
 Dump file unspecified or not available

.OPERva   c>  
.OPERva   c>  
.OPERva   c>   Calculating wake trajectory ...
 Calculating source influence matrix ...

 Solving BL system ...

 Side 1 forced transition at x/c =  1.0000   79
 Side 2 forced transition at x/c =  1.0000   83

   1   rms: 0.1057E-01   max: -.9479E-01   D at    3  2   RLX: 0.761
       a =  0.450      CL = -0.1254
      Cm = -0.0027     CD =  0.05526   =>   CDf =  0.02187    CDp =  0.03339

 Side 1 forced transition at x/c =  1.0000   79
 Side 2 forced transition at x/c =  1.0000   83

   2   rms: 0.2967E-02   max: 0.2655E-01   D at    2  1
       a =  0.450      CL = -0.1253
      Cm = -0.0026     CD =  0.05524   =>   CDf =  0.02189    CDp =  0.03335

 Side 1 forced transition at x/c =  1.0000   79
 Side 2 forced transition at x/c =  1.0000   83

   3   rms: 0.3968E-04   max: -.3005E-03   D at    4  1
       a =  0.450      CL = -0.1253
      Cm = -0.0026     CD =  0.05524   =>   CDf =  0.02190    CDp =  0.03335
 plradd ia,ip,cpol           10          78  5.41778430E-02

 Point added to stored polar  1
 Save file unspecified or not available
 Dump file unspecified or not available

.OPERva   c>  
.OPERva   c>  
.OPERva   c>   Calculating wake trajectory ...
 Calculating source influence matrix ...

 Solving BL system ...

 Side 1 forced transition at x/c =  1.0000   79
 Side 2 forced transition at x/c =  1.0000   83

   1   rms: 0.1086E-01   max: -.1382E+00   D at    3  1   RLX: 0.754
       a =  0.500      CL = -0.1255
      Cm = -0.0023     CD =  0.05522   =>   CDf =  0.02190    CDp =  0.03332

 Side 1 forced transition at x/c =  1.0000   79
 Side 2 forced transition at x/c =  1.0000   83

   2   rms: 0.3186E-02   max: -.4140E-01   T at    3  1
       a =  0.500      CL = -0.1255
      Cm = -0.0022     CD =  0.05520   =>   CDf =  0.02192    CDp =  0.03329

 Side 1 forced transition at x/c =  1.0000   79
 Side 2 forced transition at x/c =  1.0000   83

   3   rms: 0.7600E-04   max: -.1034E-02   T at    3  1
       a =  0.500      CL = -0.1255
      Cm = -0.0022     CD =  0.05520   =>   CDf =  0.02192    CDp =  0.03328
 plradd ia,ip,cpol           11          78  5.41778430E-02

 Point added to stored polar  1
 Save file unspecified or not available
 Dump file unspecified or not available

.OPERva   c>  
.OPERva   c>  
.OPERva   c>   Calculating wake trajectory ...
 Calculating source influence matrix ...

 Solving BL system ...

 Side 1 forced transition at x/c =  1.0000   79
 Side 2 forced transition at x/c =  1.0000   83

   1   rms: 0.1497E-01   max: 0.1866E+00   T at    3  1   RLX: 0.747
       a =  0.550      CL = -0.1256
      Cm = -0.0019     CD =  0.05517   =>   CDf =  0.02192    CDp =  0.03325

 Side 1 forced transition at x/c =  1.0000   79
 Side 2 forced transition at x/c =  1.0000   83

   2   rms: 0.2579E-02   max: -.2312E-01   T at    2  1
       a =  0.550      CL = -0.1256
      Cm = -0.0018     CD =  0.05516   =>   CDf =  0.02194    CDp =  0.03322

 Side 1 forced transition at x/c =  1.0000   79
 Side 2 forced transition at x/c =  1.0000   83

   3   rms: 0.4029E-04   max: -.3181E-03   D at    3  1
       a =  0.550      CL = -0.1255
      Cm = -0.0018     CD =  0.05516   =>   CDf =  0.02195    CDp =  0.03321
 plradd ia,ip,cpol           12          78  5.41778430E-02

 Point added to stored polar  1
 Save file unspecified or not available
 Dump file unspecified or not available

.OPERva   c>  
.OPERva   c>  
.OPERva   c>   Calculating wake trajectory ...
 Calculating source influence matrix ...

 Solving BL system ...

 Side 1 forced transition at x/c =  1.0000   79
 Side 2 forced transition at x/c =  1.0000   83

   1   rms: 0.6734E-02   max: 0.6315E-01   D at    3  2   RLX: 0.740
       a =  0.600      CL = -0.1256
      Cm = -0.0014     CD =  0.05514   =>   CDf =  0.02195    CDp =  0.03319

 Side 1 forced transition at x/c =  1.0000   79
 Side 2 forced transition at x/c =  1.0000   83

   2   rms: 0.1706E-02   max: 0.1611E-01   D at    3  2
       a =  0.600      CL = -0.1256
      Cm = -0.0013     CD =  0.05513   =>   CDf =  0.02197    CDp =  0.03316

 Side 1 forced transition at x/c =  1.0000   79
 Side 2 forced transition at x/c =  1.0000   83

   3   rms: 0.2975E-04   max: 0.2632E-03   C at   83  2
       a =  0.600      CL = -0.1256
      Cm = -0.0013     CD =  0.05512   =>   CDf =  0.02197    CDp =  0.03315
 plradd ia,ip,cpol           13          78  5.41778430E-02

 Point added to stored polar  1
 Save file unspecified or not available
 Dump file unspecified or not available

.OPERva   c>  
.OPERva   c>  
.OPERva   c>   Calculating wake trajectory ...
 Calculating source influence matrix ...

 Solving BL system ...

 Side 1 forced transition at x/c =  1.0000   79
 Side 2 forced transition at x/c =  1.0000   83

   1   rms: 0.1101E-01   max: -.1167E+00   D at    3  2   RLX: 0.734
       a =  0.650      CL = -0.1256
      Cm = -0.0010     CD =  0.05510   =>   CDf =  0.02197    CDp =  0.03313

 Side 1 forced transition at x/c =  1.0000   79
 Side 2 forced transition at x/c =  1.0000   83

   2   rms: 0.3525E-02   max: -.3910E-01   D at    3  2
       a =  0.650      CL = -0.1255
      Cm = -0.0009     CD =  0.05509   =>   CDf =  0.02199    CDp =  0.03310

 Side 1 forced transition at x/c =  1.0000   79
 Side 2 forced transition at x/c =  1.0000   83

   3   rms: 0.6155E-04   max: -.5175E-03   D at    3  2
       a =  0.650      CL = -0.1255
      Cm = -0.0009     CD =  0.05509   =>   CDf =  0.02200    CDp =  0.03309
 plradd ia,ip,cpol           14          78  5.41778430E-02

 Point added to stored polar  1
 Save file unspecified or not available
 Dump file unspecified or not available

.OPERva   c>  
.OPERva   c>  
.OPERva   c>   Calculating wake trajectory ...
 Calculating source influence matrix ...

 Solving BL system ...

 Side 1 forced transition at x/c =  1.0000   79
 Side 2 forced transition at x/c =  1.0000   83

   1   rms: 0.7073E-02   max: -.4540E-01   D at    2  2   RLX: 0.727
       a =  0.700      CL = -0.1255
      Cm = -0.0006     CD =  0.05507   =>   CDf =  0.02200    CDp =  0.03307

 Side 1 forced transition at x/c =  1.0000   79
 Side 2 forced transition at x/c =  1.0000   83

   2   rms: 0.1867E-02   max: 0.1242E-01   D at    3  2
       a =  0.700      CL = -0.1254
      Cm = -0.0005     CD =  0.05506   =>   CDf =  0.02202    CDp =  0.03304

 Side 1 forced transition at x/c =  1.0000   79
 Side 2 forced transition at x/c =  1.0000   83

   3   rms: 0.3093E-04   max: 0.2776E-03   C at   83  2
       a =  0.700      CL = -0.1254
      Cm = -0.0005     CD =  0.05506   =>   CDf =  0.02202    CDp =  0.03303
 plradd ia,ip,cpol           15          78  5.41778430E-02

 Point added to stored polar  1
 Save file unspecified or not available
 Dump file unspecified or not available

.OPERva   c>  
.OPERva   c>  
.OPERva   c>   Calculating wake trajectory ...
 Calculating source influence matrix ...

 Solving BL system ...

 Side 1 forced transition at x/c =  1.0000   79
 Side 2 forced transition at x/c =  1.0000   83

   1   rms: 0.1217E-01   max: -.1139E+00   T at    2  2   RLX: 0.721
       a =  0.750      CL = -0.1253
      Cm = -0.0002     CD =  0.05505   =>   CDf =  0.02202    CDp =  0.03302

 Side 1 forced transition at x/c =  1.0000   79
 Side 2 forced transition at x/c =  1.0000   83

   2   rms: 0.2923E-02   max: -.2545E-01   T at    2  2
       a =  0.750      CL = -0.1252
      Cm = -0.0001     CD =  0.05504   =>   CDf =  0.02205    CDp =  0.03299

 Side 1 forced transition at x/c =  1.0000   79
 Side 2 forced transition at x/c =  1.0000   83

   3   rms: 0.4103E-04   max: 0.3098E-03   C at   83  2
       a =  0.750      CL = -0.1251
      Cm = -0.0001     CD =  0.05503   =>   CDf =  0.02205    CDp =  0.03298
 plradd ia,ip,cpol           16          78  5.41778430E-02

 Point added to stored polar  1
 Save file unspecified or not available
 Dump file unspecified or not available

.OPERva   c>  
.OPERva   c>  
.OPERva   c>   Calculating wake trajectory ...
 Calculating source influence matrix ...

 Solving BL system ...

 Side 1 forced transition at x/c =  1.0000   79
 Side 2 forced transition at x/c =  1.0000   83

   1   rms: 0.7561E-02   max: 0.5772E-01   T at    2  1   RLX: 0.715
       a =  0.800      CL = -0.1250
      Cm =  0.0001     CD =  0.05502   =>   CDf =  0.02205    CDp =  0.03297

 Side 1 forced transition at x/c =  1.0000   79
 Side 2 forced transition at x/c =  1.0000   83

   2   rms: 0.2289E-02   max: 0.1853E-01   T at    2  1
       a =  0.800      CL = -0.1249
      Cm =  0.0002     CD =  0.05501   =>   CDf =  0.02207    CDp =  0.03294

 Side 1 forced transition at x/c =  1.0000   79
 Side 2 forced transition at x/c =  1.0000   83

   3   rms: 0.3584E-04   max: 0.3063E-03   C at   83  2
       a =  0.800      CL = -0.1249
      Cm =  0.0002     CD =  0.05501   =>   CDf =  0.02208    CDp =  0.03293
 plradd ia,ip,cpol           17          78  5.41778430E-02

 Point added to stored polar  1
 Save file unspecified or not available
 Dump file unspecified or not available

.OPERva   c>  
.OPERva   c>  
.OPERva   c>   Calculating wake trajectory ...
 Calculating source influence matrix ...

 Solving BL system ...

 Side 1 forced transition at x/c =  1.0000   79
 Side 2 forced transition at x/c =  1.0000   83

   1   rms: 0.5217E-02   max: -.3190E-01   C at   83  2   RLX: 0.709
       a =  0.850      CL = -0.1247
      Cm =  0.0005     CD =  0.05500   =>   CDf =  0.02208    CDp =  0.03292

 Side 1 forced transition at x/c =  1.0000   79
 Side 2 forced transition at x/c =  1.0000   83

   2   rms: 0.1527E-02   max: -.8400E-02   C at   83  2
       a =  0.850      CL = -0.1245
      Cm =  0.0006     CD =  0.05499   =>   CDf =  0.02210    CDp =  0.03289

 Side 1 forced transition at x/c =  1.0000   79
 Side 2 forced transition at x/c =  1.0000   83

   3   rms: 0.3307E-04   max: 0.3225E-03   C at   83  2
       a =  0.850      CL = -0.1245
      Cm =  0.0006     CD =  0.05499   =>   CDf =  0.02211    CDp =  0.03288
 plradd ia,ip,cpol           18          78  6.28640726E-02

 Point added to stored polar  1
 Save file unspecified or not available
 Dump file unspecified or not available

.OPERva   c>  
.OPERva   c>  
.OPERva   c>   Calculating wake trajectory ...
 Calculating source influence matrix ...

 Solving BL system ...

 Side 1 forced transition at x/c =  1.0000   79
 Side 2 forced transition at x/c =  1.0000   83

   1   rms: 0.9150E-02   max: -.1246E+00   D at    3  2   RLX: 0.703
       a =  0.900      CL = -0.1242
      Cm =  0.0008     CD =  0.05499   =>   CDf =  0.02211    CDp =  0.03288

 Side 1 forced transition at x/c =  1.0000   79
 Side 2 forced transition at x/c =  1.0000   83

   2   rms: 0.3079E-02   max: -.4312E-01   D at    3  2
       a =  0.900      CL = -0.1240
      Cm =  0.0009     CD =  0.05498   =>   CDf =  0.02213    CDp =  0.03285

 Side 1 forced transition at x/c =  1.0000   79
 Side 2 forced transition at x/c =  1.0000   83

   3   rms: 0.5826E-04   max: -.7834E-03   D at    3  2
       a =  0.900      CL = -0.1240
      Cm =  0.0009     CD =  0.05498   =>   CDf =  0.02214    CDp =  0.03283
 plradd ia,ip,cpol           19          78  5.41778430E-02

 Point added to stored polar  1
 Save file unspecified or not available
 Dump file unspecified or not available

.OPERva   c>  
.OPERva   c>  
.OPERva   c>   Calculating wake trajectory ...
 Calculating source influence matrix ...

 Solving BL system ...

 Side 1 forced transition at x/c =  1.0000   79
 Side 2 forced transition at x/c =  1.0000   83

   1   rms: 0.1294E-01   max: 0.1592E+00   D at    3  2   RLX: 0.698
       a =  0.950      CL = -0.1237
      Cm =  0.0012     CD =  0.05497   =>   CDf =  0.02214    CDp =  0.03283

 Side 1 forced transition at x/c =  1.0000   79
 Side 2 forced transition at x/c =  1.0000   83

   2   rms: 0.3405E-02   max: 0.4217E-01   D at    3  2
       a =  0.950      CL = -0.1234
      Cm =  0.0012     CD =  0.05497   =>   CDf =  0.02216    CDp =  0.03280

 Side 1 forced transition at x/c =  1.0000   79
 Side 2 forced transition at x/c =  1.0000   83

   3   rms: 0.4580E-04   max: -.3414E-03   D at    3  2
       a =  0.950      CL = -0.1234
      Cm =  0.0012     CD =  0.05496   =>   CDf =  0.02217    CDp =  0.03279
 plradd ia,ip,cpol           20          78  6.28640726E-02

 Point added to stored polar  1
 Save file unspecified or not available
 Dump file unspecified or not available

.OPERva   c>  
.OPERva   c>  
.OPERva   c>   Calculating wake trajectory ...
 Calculating source influence matrix ...

 Solving BL system ...

 Side 1 forced transition at x/c =  1.0000   79
 Side 2 forced transition at x/c =  1.0000   83

   1   rms: 0.9835E-02   max: -.8583E-01   D at    3  2   RLX: 0.693
       a =  1.000      CL = -0.1230
      Cm =  0.0015     CD =  0.05497   =>   CDf =  0.02217    CDp =  0.03279

 Side 1 forced transition at x/c =  1.0000   79
 Side 2 forced transition at x/c =  1.0000   83

   2   rms: 0.3424E-02   max: -.3315E-01   D at    3  2
       a =  1.000      CL = -0.1227
      Cm =  0.0015     CD =  0.05496   =>   CDf =  0.02219    CDp =  0.03277

 Side 1 forced transition at x/c =  1.0000   79
 Side 2 forced transition at x/c =  1.0000   83

   3   rms: 0.6531E-04   max: -.6952E-03   D at    3  2
       a =  1.000      CL = -0.1227
      Cm =  0.0015     CD =  0.05496   =>   CDf =  0.02220    CDp =  0.03276
 plradd ia,ip,cpol           21          78  5.41778430E-02

 Point added to stored polar  1
 Save file unspecified or not available
 Dump file unspecified or not available

.OPERva   c>  
.OPERva   c>  
.OPERva   c>   Calculating wake trajectory ...
 Calculating source influence matrix ...

 Solving BL system ...

 Side 1 forced transition at x/c =  1.0000   79
 Side 2 forced transition at x/c =  1.0000   83

   1   rms: 0.1284E-01   max: -.1112E+00   T at    2  2   RLX: 0.688
       a =  1.050      CL = -0.1222
      Cm =  0.0018     CD =  0.05497   =>   CDf =  0.02220    CDp =  0.03276

 Side 1 forced transition at x/c =  1.0000   79
 Side 2 forced transition at x/c =  1.0000   83

   2   rms: 0.3505E-02   max: 0.2837E-01   D at    3  2
       a =  1.050      CL = -0.1219
      Cm =  0.0018     CD =  0.05496   =>   CDf =  0.02223    CDp =  0.03274

 Side 1 forced transition at x/c =  1.0000   79
 Side 2 forced transition at x/c =  1.0000   83

   3   rms: 0.5275E-04   max: -.4261E-03   D at    4  2
       a =  1.050      CL = -0.1219
      Cm =  0.0018     CD =  0.05496   =>   CDf =  0.02224    CDp =  0.03272
 plradd ia,ip,cpol           22          78  6.28640726E-02

 Point added to stored polar  1
 Save file unspecified or not available
 Dump file unspecified or not available

.OPERva   c>  
.OPERva   c>  
.OPERva   c>   Calculating wake trajectory ...
 Calculating source influence matrix ...

 Solving BL system ...

 Side 1 forced transition at x/c =  1.0000   79
 Side 2 forced transition at x/c =  1.0000   83

   1   rms: 0.8885E-02   max: -.1001E+00   D at    3  2   RLX: 0.683
       a =  1.100      CL = -0.1214
      Cm =  0.0020     CD =  0.05497   =>   CDf =  0.02224    CDp =  0.03273

 Side 1 forced transition at x/c =  1.0000   79
 Side 2 forced transition at x/c =  1.0000   83

   2   rms: 0.3104E-02   max: -.3712E-01   D at    3  2
       a =  1.100      CL = -0.1210
      Cm =  0.0021     CD =  0.05497   =>   CDf =  0.02226    CDp =  0.03271

 Side 1 forced transition at x/c =  1.0000   79
 Side 2 forced transition at x/c =  1.0000   83

   3   rms: 0.5680E-04   max: -.7072E-03   D at    3  2
       a =  1.100      CL = -0.1210
      Cm =  0.0021     CD =  0.05497   =>   CDf =  0.02227    CDp =  0.03270
 plradd ia,ip,cpol           23          78  6.28640726E-02

 Point added to stored polar  1
 Save file unspecified or not available
 Dump file unspecified or not available

.OPERva   c>  
.OPERva   c>  
.OPERva   c>   Calculating wake trajectory ...
 Calculating source influence matrix ...

 Solving BL system ...

 Side 1 forced transition at x/c =  1.0000   79
 Side 2 forced transition at x/c =  1.0000   83

   1   rms: 0.8203E-02   max: -.7322E-01   D at    3  1   RLX: 0.678
       a =  1.150      CL = -0.1204
      Cm =  0.0023     CD =  0.05498   =>   CDf =  0.02227    CDp =  0.03271

 Side 1 forced transition at x/c =  1.0000   79
 Side 2 forced transition at x/c =  1.0000   83

   2   rms: 0.2768E-02   max: -.2452E-01   D at    3  1
       a =  1.150      CL = -0.1200
      Cm =  0.0024     CD =  0.05498   =>   CDf =  0.02229    CDp =  0.03269

 Side 1 forced transition at x/c =  1.0000   79
 Side 2 forced transition at x/c =  1.0000   83

   3   rms: 0.4074E-04   max: 0.3932E-03   C at   83  2
       a =  1.150      CL = -0.1200
      Cm =  0.0024     CD =  0.05498   =>   CDf =  0.02230    CDp =  0.03268
 plradd ia,ip,cpol           24          78  6.28640726E-02

 Point added to stored polar  1
 Save file unspecified or not available
 Dump file unspecified or not available

.OPERva   c>  
.OPERva   c>  
.OPERva   c>   Calculating wake trajectory ...
 Calculating source influence matrix ...

 Solving BL system ...

 Side 1 forced transition at x/c =  1.0000   79
 Side 2 forced transition at x/c =  1.0000   83

   1   rms: 0.8670E-02   max: 0.8751E-01   D at    3  2   RLX: 0.673
       a =  1.200      CL = -0.1193
      Cm =  0.0025     CD =  0.05499   =>   CDf =  0.02230    CDp =  0.03269

 Side 1 forced transition at x/c =  1.0000   79
 Side 2 forced transition at x/c =  1.0000   83

   2   rms: 0.2745E-02   max: 0.2771E-01   D at    3  2
       a =  1.200      CL = -0.1189
      Cm =  0.0026     CD =  0.05500   =>   CDf =  0.02233    CDp =  0.03267

 Side 1 forced transition at x/c =  1.0000   79
 Side 2 forced transition at x/c =  1.0000   83

   3   rms: 0.3721E-04   max: 0.3715E-03   C at   83  2
       a =  1.200      CL = -0.1189
      Cm =  0.0026     CD =  0.05499   =>   CDf =  0.02234    CDp =  0.03266
 plradd ia,ip,cpol           25          78  6.28640726E-02

 Point added to stored polar  1
 Save file unspecified or not available
 Dump file unspecified or not available

.OPERva   c>  
.OPERva   c>  
.OPERva   c>   Calculating wake trajectory ...
 Calculating source influence matrix ...

 Solving BL system ...

 Side 1 forced transition at x/c =  1.0000   79
 Side 2 forced transition at x/c =  1.0000   83

   1   rms: 0.7032E-02   max: -.7771E-01   D at    3  2   RLX: 0.669
       a =  1.250      CL = -0.1182
      Cm =  0.0028     CD =  0.05501   =>   CDf =  0.02234    CDp =  0.03268

 Side 1 forced transition at x/c =  1.0000   79
 Side 2 forced transition at x/c =  1.0000   83

   2   rms: 0.2528E-02   max: -.2983E-01   D at    3  2
       a =  1.250      CL = -0.1177
      Cm =  0.0028     CD =  0.05502   =>   CDf =  0.02236    CDp =  0.03266

 Side 1 forced transition at x/c =  1.0000   79
 Side 2 forced transition at x/c =  1.0000   83

   3   rms: 0.5556E-04   max: -.6809E-03   D at    3  2
       a =  1.250      CL = -0.1177
      Cm =  0.0028     CD =  0.05501   =>   CDf =  0.02237    CDp =  0.03265
 plradd ia,ip,cpol           26          78  6.28640726E-02

 Point added to stored polar  1
 Save file unspecified or not available
 Dump file unspecified or not available

.OPERva   c>  
.OPERva   c>  
.OPERva   c>   Calculating wake trajectory ...
 Calculating source influence matrix ...

 Solving BL system ...

 Side 1 forced transition at x/c =  1.0000   79
 Side 2 forced transition at x/c =  1.0000   83

   1   rms: 0.8296E-02   max: -.6271E-01   D at    2  2   RLX: 0.665
       a =  1.300      CL = -0.1169
      Cm =  0.0030     CD =  0.05504   =>   CDf =  0.02237    CDp =  0.03267

 Side 1 forced transition at x/c =  1.0000   79
 Side 2 forced transition at x/c =  1.0000   83

   2   rms: 0.2658E-02   max: -.1883E-01   T at    2  1
       a =  1.300      CL = -0.1164
      Cm =  0.0030     CD =  0.05505   =>   CDf =  0.02239    CDp =  0.03265

 Side 1 forced transition at x/c =  1.0000   79
 Side 2 forced transition at x/c =  1.0000   83

   3   rms: 0.4303E-04   max: 0.4286E-03   C at   83  2
       a =  1.300      CL = -0.1164
      Cm =  0.0030     CD =  0.05504   =>   CDf =  0.02240    CDp =  0.03264
 plradd ia,ip,cpol           27          78  6.28640726E-02

 Point added to stored polar  1
 Save file unspecified or not available
 Dump file unspecified or not available

.OPERva   c>  
.OPERva   c>  
.OPERva   c>   Calculating wake trajectory ...
 Calculating source influence matrix ...

 Solving BL system ...

 Side 1 forced transition at x/c =  1.0000   79
 Side 2 forced transition at x/c =  1.0000   83

   1   rms: 0.1039E-01   max: -.9707E-01   D at    3  2   RLX: 0.660
       a =  1.350      CL = -0.1156
      Cm =  0.0032     CD =  0.05507   =>   CDf =  0.02240    CDp =  0.03267

 Side 1 forced transition at x/c =  1.0000   79
 Side 2 forced transition at x/c =  1.0000   83

   2   rms: 0.4128E-02   max: -.4435E-01   T at    3  2
       a =  1.350      CL = -0.1150
      Cm =  0.0032     CD =  0.05508   =>   CDf =  0.02243    CDp =  0.03265

 Side 1 forced transition at x/c =  1.0000   79
 Side 2 forced transition at x/c =  1.0000   83

   3   rms: 0.3553E-03   max: -.4969E-02   T at    3  2
       a =  1.350      CL = -0.1150
      Cm =  0.0032     CD =  0.05507   =>   CDf =  0.02244    CDp =  0.03264

 Side 1 forced transition at x/c =  1.0000   79
 Side 2 forced transition at x/c =  1.0000   83

   4   rms: 0.1415E-04   max: 0.2077E-03   T at    3  2
       a =  1.350      CL = -0.1150
      Cm =  0.0032     CD =  0.05507   =>   CDf =  0.02244    CDp =  0.03264
 plradd ia,ip,cpol           28          78  6.28640726E-02

 Point added to stored polar  1
 Save file unspecified or not available
 Dump file unspecified or not available

.OPERva   c>  
.OPERva   c>  
.OPERva   c>   Calculating wake trajectory ...
 Calculating source influence matrix ...

 Solving BL system ...

 Side 1 forced transition at x/c =  1.0000   79
 Side 2 forced transition at x/c =  1.0000   83

   1   rms: 0.6533E-02   max: -.4616E-01   T at    3  2   RLX: 0.656
       a =  1.400      CL = -0.1141
      Cm =  0.0033     CD =  0.05511   =>   CDf =  0.02263    CDp =  0.03248

 Side 1 forced transition at x/c =  1.0000   80
 Side 2 forced transition at x/c =  1.0000   82

   2   rms: 0.1123E-01   max: -.1919E+00   T at    2  1
       a =  1.400      CL = -0.1135
      Cm =  0.0034     CD =  0.05512   =>   CDf =  0.02247    CDp =  0.03264

 Side 1 forced transition at x/c =  1.0000   80
 Side 2 forced transition at x/c =  1.0000   82

   3   rms: 0.6654E-03   max: -.1086E-01   D at    3  1
       a =  1.400      CL = -0.1135
      Cm =  0.0034     CD =  0.05511   =>   CDf =  0.02249    CDp =  0.03263

 Side 1 forced transition at x/c =  1.0000   80
 Side 2 forced transition at x/c =  1.0000   82

   4   rms: 0.1991E-05   max: -.3217E-04   D at    3  1
       a =  1.400      CL = -0.1135
      Cm =  0.0034     CD =  0.05511   =>   CDf =  0.02249    CDp =  0.03263
 plradd ia,ip,cpol           29          79  6.28640726E-02

 Point added to stored polar  1
 Save file unspecified or not available
 Dump file unspecified or not available

.OPERva   c>  
.OPERva   c>  
.OPERva   c>   Calculating wake trajectory ...
 Calculating source influence matrix ...

 Solving BL system ...

 Side 1 forced transition at x/c =  1.0000   80
 Side 2 forced transition at x/c =  1.0000   82

   1   rms: 0.1012E-01   max: -.8203E-01   D at    3  1   RLX: 0.652
       a =  1.450      CL = -0.1126
      Cm =  0.0035     CD =  0.05514   =>   CDf =  0.02249    CDp =  0.03266

 Side 1 forced transition at x/c =  1.0000   80
 Side 2 forced transition at x/c =  1.0000   82

   2   rms: 0.3888E-02   max: 0.3327E-01   T at    2  1
       a =  1.450      CL = -0.1120
      Cm =  0.0035     CD =  0.05516   =>   CDf =  0.02251    CDp =  0.03265

 Side 1 forced transition at x/c =  1.0000   80
 Side 2 forced transition at x/c =  1.0000   82

   3   rms: 0.5987E-04   max: -.6184E-03   D at    3  1
       a =  1.450      CL = -0.1119
      Cm =  0.0035     CD =  0.05515   =>   CDf =  0.02252    CDp =  0.03263
 plradd ia,ip,cpol           30          79  6.28640726E-02

 Point added to stored polar  1
 Save file unspecified or not available
 Dump file unspecified or not available

.OPERva   c>  
.OPERva   c>  
.OPERva   c>   Calculating wake trajectory ...
 Calculating source influence matrix ...

 Solving BL system ...

 Side 1 forced transition at x/c =  1.0000   80
 Side 2 forced transition at x/c =  1.0000   82

   1   rms: 0.1374E-01   max: -.1351E+00   T at    2  2   RLX: 0.649
       a =  1.500      CL = -0.1109
      Cm =  0.0036     CD =  0.05519   =>   CDf =  0.02252    CDp =  0.03267

 Side 1 forced transition at x/c =  1.0000   80
 Side 2 forced transition at x/c =  1.0000   82

   2   rms: 0.4376E-02   max: -.3946E-01   T at    2  2
       a =  1.500      CL = -0.1103
      Cm =  0.0037     CD =  0.05521   =>   CDf =  0.02255    CDp =  0.03266

 Side 1 forced transition at x/c =  1.0000   80
 Side 2 forced transition at x/c =  1.0000   82

   3   rms: 0.7771E-04   max: -.6827E-03   D at    3  1
       a =  1.500      CL = -0.1103
      Cm =  0.0037     CD =  0.05520   =>   CDf =  0.02256    CDp =  0.03265
 plradd ia,ip,cpol           31          79  6.28640726E-02

 Point added to stored polar  1
 Save file unspecified or not available
 Dump file unspecified or not available

.OPERva   c>  
.OPERva   c>  
.OPERva   c>   Calculating wake trajectory ...
 Calculating source influence matrix ...

 Solving BL system ...

 Side 1 forced transition at x/c =  1.0000   80
 Side 2 forced transition at x/c =  1.0000   82

   1   rms: 0.9514E-02   max: -.8204E-01   D at    3  1   RLX: 0.645
       a =  1.550      CL = -0.1092
      Cm =  0.0038     CD =  0.05524   =>   CDf =  0.02256    CDp =  0.03269

 Side 1 forced transition at x/c =  1.0000   80
 Side 2 forced transition at x/c =  1.0000   82

   2   rms: 0.3682E-02   max: -.3319E-01   D at    3  1
       a =  1.550      CL = -0.1086
      Cm =  0.0038     CD =  0.05526   =>   CDf =  0.02258    CDp =  0.03268

 Side 1 forced transition at x/c =  1.0000   80
 Side 2 forced transition at x/c =  1.0000   82

   3   rms: 0.5758E-04   max: -.6211E-03   D at    3  1
       a =  1.550      CL = -0.1085
      Cm =  0.0038     CD =  0.05526   =>   CDf =  0.02259    CDp =  0.03266
 plradd ia,ip,cpol           32          79  6.28640726E-02

 Point added to stored polar  1
 Save file unspecified or not available
 Dump file unspecified or not available

.OPERva   c>  
.OPERva   c>  
.OPERva   c>   Calculating wake trajectory ...
 Calculating source influence matrix ...

 Solving BL system ...

 Side 1 forced transition at x/c =  1.0000   80
 Side 2 forced transition at x/c =  1.0000   82

   1   rms: 0.6309E-02   max: 0.5420E-01   D at    4  1   RLX: 0.641
       a =  1.600      CL = -0.1075
      Cm =  0.0039     CD =  0.05530   =>   CDf =  0.02259    CDp =  0.03271

 Side 1 forced transition at x/c =  1.0000   80
 Side 2 forced transition at x/c =  1.0000   82

   2   rms: 0.2233E-02   max: 0.1834E-01   D at    4  1
       a =  1.600      CL = -0.1068
      Cm =  0.0039     CD =  0.05532   =>   CDf =  0.02262    CDp =  0.03270

 Side 1 forced transition at x/c =  1.0000   80
 Side 2 forced transition at x/c =  1.0000   82

   3   rms: 0.3508E-04   max: 0.3014E-03   C at   82  2
       a =  1.600      CL = -0.1067
      Cm =  0.0039     CD =  0.05532   =>   CDf =  0.02263    CDp =  0.03269
 plradd ia,ip,cpol           33          79  6.28640726E-02

 Point added to stored polar  1
 Save file unspecified or not available
 Dump file unspecified or not available

.OPERva   c>  
.OPERva   c>  
.OPERva   c>   Calculating wake trajectory ...
 Calculating source influence matrix ...

 Solving BL system ...

 Side 1 forced transition at x/c =  1.0000   80
 Side 2 forced transition at x/c =  1.0000   82

   1   rms: 0.8499E-02   max: -.8647E-01   D at    4  1   RLX: 0.638
       a =  1.650      CL = -0.1056
      Cm =  0.0040     CD =  0.05537   =>   CDf =  0.02263    CDp =  0.03274

 Side 1 forced transition at x/c =  1.0000   80
 Side 2 forced transition at x/c =  1.0000   82

   2   rms: 0.3228E-02   max: -.3170E-01   D at    4  1
       a =  1.650      CL = -0.1049
      Cm =  0.0041     CD =  0.05539   =>   CDf =  0.02265    CDp =  0.03273

 Side 1 forced transition at x/c =  1.0000   80
 Side 2 forced transition at x/c =  1.0000   82

   3   rms: 0.4096E-04   max: -.3310E-03   D at    3  2
       a =  1.650      CL = -0.1048
      Cm =  0.0041     CD =  0.05538   =>   CDf =  0.02266    CDp =  0.03271
 plradd ia,ip,cpol           34          79  6.28640726E-02

 Point added to stored polar  1
 Save file unspecified or not available
 Dump file unspecified or not available

.OPERva   c>  
.OPERva   c>  
.OPERva   c>   Calculating wake trajectory ...
 Calculating source influence matrix ...

 Solving BL system ...

 Side 1 forced transition at x/c =  1.0000   80
 Side 2 forced transition at x/c =  1.0000   82

   1   rms: 0.8935E-02   max: 0.9060E-01   D at    3  2   RLX: 0.634
       a =  1.700      CL = -0.1037
      Cm =  0.0041     CD =  0.05543   =>   CDf =  0.02266    CDp =  0.03277

 Side 1 forced transition at x/c =  1.0000   80
 Side 2 forced transition at x/c =  1.0000   82

   2   rms: 0.3166E-02   max: 0.3245E-01   D at    3  2
       a =  1.700      CL = -0.1029
      Cm =  0.0042     CD =  0.05545   =>   CDf =  0.02269    CDp =  0.03276

 Side 1 forced transition at x/c =  1.0000   80
 Side 2 forced transition at x/c =  1.0000   82

   3   rms: 0.3395E-04   max: 0.2774E-03   C at   82  2
       a =  1.700      CL = -0.1029
      Cm =  0.0041     CD =  0.05545   =>   CDf =  0.02270    CDp =  0.03274
 plradd ia,ip,cpol           35          79  6.28640726E-02

 Point added to stored polar  1
 Save file unspecified or not available
 Dump file unspecified or not available

.OPERva   c>  
.OPERva   c>  
.OPERva   c>   Calculating wake trajectory ...
 Calculating source influence matrix ...

 Solving BL system ...

 Side 1 forced transition at x/c =  1.0000   80
 Side 2 forced transition at x/c =  1.0000   82

   1   rms: 0.1014E-01   max: 0.8468E-01   D at    3  1   RLX: 0.631
       a =  1.750      CL = -0.1017
      Cm =  0.0042     CD =  0.05551   =>   CDf =  0.02270    CDp =  0.03280

 Side 1 forced transition at x/c =  1.0000   80
 Side 2 forced transition at x/c =  1.0000   82

   2   rms: 0.3427E-02   max: -.2639E-01   T at    2  2
       a =  1.750      CL = -0.1009
      Cm =  0.0042     CD =  0.05553   =>   CDf =  0.02273    CDp =  0.03280

 Side 1 forced transition at x/c =  1.0000   80
 Side 2 forced transition at x/c =  1.0000   82

   3   rms: 0.5121E-04   max: -.4282E-03   D at    3  1
       a =  1.750      CL = -0.1008
      Cm =  0.0042     CD =  0.05552   =>   CDf =  0.02274    CDp =  0.03278
 plradd ia,ip,cpol           36          79  6.28640726E-02

 Point added to stored polar  1
 Save file unspecified or not available
 Dump file unspecified or not available

.OPERva   c>  
.OPERva   c>  
.OPERva   c>   Calculating wake trajectory ...
 Calculating source influence matrix ...

 Solving BL system ...

 Side 1 forced transition at x/c =  1.0000   80
 Side 2 forced transition at x/c =  1.0000   82

   1   rms: 0.1165E-01   max: -.1305E+00   D at    3  1   RLX: 0.628
       a =  1.800      CL = -0.0996
      Cm =  0.0043     CD =  0.05558   =>   CDf =  0.02274    CDp =  0.03284

 Side 1 forced transition at x/c =  1.0000   80
 Side 2 forced transition at x/c =  1.0000   82

   2   rms: 0.4873E-02   max: -.5429E-01   D at    3  1
       a =  1.800      CL = -0.0988
      Cm =  0.0043     CD =  0.05561   =>   CDf =  0.02276    CDp =  0.03285

 Side 1 forced transition at x/c =  1.0000   80
 Side 2 forced transition at x/c =  1.0000   82

   3   rms: 0.8272E-04   max: 0.6826E-03   D at    5  1
       a =  1.800      CL = -0.0987
      Cm =  0.0043     CD =  0.05560   =>   CDf =  0.02277    CDp =  0.03283
 plradd ia,ip,cpol           37          79  6.28640726E-02

 Point added to stored polar  1
 Save file unspecified or not available
 Dump file unspecified or not available

.OPERva   c>  
.OPERva   c>  
.OPERva   c>   Calculating wake trajectory ...
 Calculating source influence matrix ...

 Solving BL system ...

 Side 1 forced transition at x/c =  1.0000   80
 Side 2 forced transition at x/c =  1.0000   82

   1   rms: 0.6948E-02   max: 0.5759E-01   D at    3  1   RLX: 0.625
       a =  1.850      CL = -0.0975
      Cm =  0.0044     CD =  0.05566   =>   CDf =  0.02277    CDp =  0.03289

 Side 1 forced transition at x/c =  1.0000   80
 Side 2 forced transition at x/c =  1.0000   82

   2   rms: 0.2567E-02   max: 0.1955E-01   D at    3  1
       a =  1.850      CL = -0.0966
      Cm =  0.0044     CD =  0.05569   =>   CDf =  0.02280    CDp =  0.03290

 Side 1 forced transition at x/c =  1.0000   80
 Side 2 forced transition at x/c =  1.0000   82

   3   rms: 0.3747E-04   max: -.3310E-03   D at    3  1
       a =  1.850      CL = -0.0966
      Cm =  0.0044     CD =  0.05569   =>   CDf =  0.02281    CDp =  0.03288
 plradd ia,ip,cpol           38          79  6.28640726E-02

 Point added to stored polar  1
 Save file unspecified or not available
 Dump file unspecified or not available

.OPERva   c>  
.OPERva   c>  
.OPERva   c>   Calculating wake trajectory ...
 Calculating source influence matrix ...

 Solving BL system ...

 Side 1 forced transition at x/c =  1.0000   80
 Side 2 forced transition at x/c =  1.0000   82

   1   rms: 0.8128E-02   max: 0.7716E-01   D at    3  2   RLX: 0.622
       a =  1.900      CL = -0.0953
      Cm =  0.0044     CD =  0.05575   =>   CDf =  0.02281    CDp =  0.03294

 Side 1 forced transition at x/c =  1.0000   80
 Side 2 forced transition at x/c =  1.0000   82

   2   rms: 0.2992E-02   max: 0.2880E-01   D at    3  2
       a =  1.900      CL = -0.0944
      Cm =  0.0044     CD =  0.05578   =>   CDf =  0.02283    CDp =  0.03294

 Side 1 forced transition at x/c =  1.0000   80
 Side 2 forced transition at x/c =  1.0000   82

   3   rms: 0.3577E-04   max: 0.2489E-03   C at   82  2
       a =  1.900      CL = -0.0944
      Cm =  0.0044     CD =  0.05577   =>   CDf =  0.02285    CDp =  0.03292
 plradd ia,ip,cpol           39          79  6.28640726E-02

 Point added to stored polar  1
 Save file unspecified or not available
 Dump file unspecified or not available

.OPERva   c>  
.OPERva   c>  
.OPERva   c>   Calculating wake trajectory ...
 Calculating source influence matrix ...

 Solving BL system ...

 Side 1 forced transition at x/c =  1.0000   80
 Side 2 forced transition at x/c =  1.0000   82

   1   rms: 0.9633E-02   max: -.8897E-01   D at    3  2   RLX: 0.619
       a =  1.950      CL = -0.0930
      Cm =  0.0045     CD =  0.05584   =>   CDf =  0.02285    CDp =  0.03299

 Side 1 forced transition at x/c =  1.0000   80
 Side 2 forced transition at x/c =  1.0000   82

   2   rms: 0.3913E-02   max: -.3875E-01   D at    3  2
       a =  1.950      CL = -0.0921
      Cm =  0.0045     CD =  0.05587   =>   CDf =  0.02287    CDp =  0.03300

 Side 1 forced transition at x/c =  1.0000   80
 Side 2 forced transition at x/c =  1.0000   82

   3   rms: 0.6298E-04   max: -.6597E-03   D at    3  2
       a =  1.950      CL = -0.0921
      Cm =  0.0045     CD =  0.05586   =>   CDf =  0.02288    CDp =  0.03298
 plradd ia,ip,cpol           40          79  7.28383735E-02

 Point added to stored polar  1
 Save file unspecified or not available
 Dump file unspecified or not available

.OPERva   c>  
.OPERva   c>  
.OPERva   c>   Calculating wake trajectory ...
 Calculating source influence matrix ...

 Solving BL system ...

 Side 1 forced transition at x/c =  1.0000   80
 Side 2 forced transition at x/c =  1.0000   82

   1   rms: 0.8212E-02   max: -.8366E-01   D at    4  1   RLX: 0.616
       a =  2.000      CL = -0.0907
      Cm =  0.0045     CD =  0.05593   =>   CDf =  0.02288    CDp =  0.03305

 Side 1 forced transition at x/c =  1.0000   80
 Side 2 forced transition at x/c =  1.0000   82

   2   rms: 0.3207E-02   max: -.3194E-01   D at    4  1
       a =  2.000      CL = -0.0898
      Cm =  0.0045     CD =  0.05597   =>   CDf =  0.02290    CDp =  0.03306

 Side 1 forced transition at x/c =  1.0000   80
 Side 2 forced transition at x/c =  1.0000   82

   3   rms: 0.3454E-04   max: -.2316E-03   D at    3  2
       a =  2.000      CL = -0.0898
      Cm =  0.0045     CD =  0.05596   =>   CDf =  0.02292    CDp =  0.03304
 plradd ia,ip,cpol           41          79  6.28640726E-02

 Point added to stored polar  1
 Save file unspecified or not available
 Dump file unspecified or not available

.OPERva   c>  
.OPERva   c>  
.OPERva   c>   Calculating wake trajectory ...
 Calculating source influence matrix ...

 Solving BL system ...

 Side 1 forced transition at x/c =  1.0000   80
 Side 2 forced transition at x/c =  1.0000   82

   1   rms: 0.8855E-02   max: 0.8277E-01   D at    3  2   RLX: 0.613
       a =  2.050      CL = -0.0884
      Cm =  0.0045     CD =  0.05603   =>   CDf =  0.02292    CDp =  0.03312

 Side 1 forced transition at x/c =  1.0000   80
 Side 2 forced transition at x/c =  1.0000   82

   2   rms: 0.3440E-02   max: 0.3382E-01   D at    3  2
       a =  2.050      CL = -0.0874
      Cm =  0.0045     CD =  0.05607   =>   CDf =  0.02294    CDp =  0.03313

 Side 1 forced transition at x/c =  1.0000   80
 Side 2 forced transition at x/c =  1.0000   82

   3   rms: 0.3196E-04   max: -.1775E-03   D at    4  1
       a =  2.050      CL = -0.0874
      Cm =  0.0045     CD =  0.05606   =>   CDf =  0.02295    CDp =  0.03311
 plradd ia,ip,cpol           42          79  6.28640726E-02

 Point added to stored polar  1
 Save file unspecified or not available
 Dump file unspecified or not available

.OPERva   c>  
.OPERva   c>  
.OPERva   c>   Calculating wake trajectory ...
 Calculating source influence matrix ...

 Solving BL system ...

 Side 1 forced transition at x/c =  1.0000   80
 Side 2 forced transition at x/c =  1.0000   82

   1   rms: 0.9573E-02   max: -.7671E-01   T at    2  2   RLX: 0.610
       a =  2.100      CL = -0.0860
      Cm =  0.0046     CD =  0.05614   =>   CDf =  0.02295    CDp =  0.03319

 Side 1 forced transition at x/c =  1.0000   80
 Side 2 forced transition at x/c =  1.0000   82

   2   rms: 0.3501E-02   max: -.2653E-01   T at    2  1
       a =  2.100      CL = -0.0850
      Cm =  0.0046     CD =  0.05618   =>   CDf =  0.02297    CDp =  0.03320

 Side 1 forced transition at x/c =  1.0000   80
 Side 2 forced transition at x/c =  1.0000   82

   3   rms: 0.4478E-04   max: -.3707E-03   D at    4  1
       a =  2.100      CL = -0.0850
      Cm =  0.0046     CD =  0.05617   =>   CDf =  0.02299    CDp =  0.03318
 plradd ia,ip,cpol           43          79  7.28383735E-02

 Point added to stored polar  1
 Save file unspecified or not available
 Dump file unspecified or not available

.OPERva   c>  
.OPERva   c>  
.OPERva   c>   Calculating wake trajectory ...
 Calculating source influence matrix ...

 Solving BL system ...

 Side 1 forced transition at x/c =  1.0000   80
 Side 2 forced transition at x/c =  1.0000   82

   1   rms: 0.1127E-01   max: -.1428E+00   D at    3  2   RLX: 0.608
       a =  2.150      CL = -0.0835
      Cm =  0.0046     CD =  0.05625   =>   CDf =  0.02299    CDp =  0.03326

 Side 1 forced transition at x/c =  1.0000   80
 Side 2 forced transition at x/c =  1.0000   82

   2   rms: 0.4992E-02   max: -.6517E-01   D at    3  2
       a =  2.150      CL = -0.0825
      Cm =  0.0046     CD =  0.05628   =>   CDf =  0.02301    CDp =  0.03328

 Side 1 forced transition at x/c =  1.0000   80
 Side 2 forced transition at x/c =  1.0000   82

   3   rms: 0.1305E-03   max: -.1923E-02   T at    3  2
       a =  2.150      CL = -0.0825
      Cm =  0.0046     CD =  0.05628   =>   CDf =  0.02302    CDp =  0.03326

 Side 1 forced transition at x/c =  1.0000   80
 Side 2 forced transition at x/c =  1.0000   82

   4   rms: 0.1215E-05   max: -.1496E-04   D at    3  2
       a =  2.150      CL = -0.0825
      Cm =  0.0046     CD =  0.05628   =>   CDf =  0.02302    CDp =  0.03326
 plradd ia,ip,cpol           44          79  7.28383735E-02

 Point added to stored polar  1
 Save file unspecified or not available
 Dump file unspecified or not available

.OPERva   c>  
.OPERva   c>  
.OPERva   c>   Calculating wake trajectory ...
 Calculating source influence matrix ...

 Solving BL system ...

 Side 1 forced transition at x/c =  1.0000   80
 Side 2 forced transition at x/c =  1.0000   82

   1   rms: 0.7097E-02   max: -.5449E-01   D at    4  2   RLX: 0.605
       a =  2.200      CL = -0.0811
      Cm =  0.0046     CD =  0.05636   =>   CDf =  0.02302    CDp =  0.03334

 Side 1 forced transition at x/c =  1.0000   80
 Side 2 forced transition at x/c =  1.0000   82

   2   rms: 0.2879E-02   max: -.2314E-01   D at    4  2
       a =  2.200      CL = -0.0801
      Cm =  0.0046     CD =  0.05640   =>   CDf =  0.02304    CDp =  0.03336

 Side 1 forced transition at x/c =  1.0000   80
 Side 2 forced transition at x/c =  1.0000   82

   3   rms: 0.3286E-04   max: -.2380E-03   D at    4  2
       a =  2.200      CL = -0.0800
      Cm =  0.0046     CD =  0.05639   =>   CDf =  0.02305    CDp =  0.03334
 plradd ia,ip,cpol           45          79  7.28383735E-02

 Point added to stored polar  1
 Save file unspecified or not available
 Dump file unspecified or not available

.OPERva   c>  
.OPERva   c>  
.OPERva   c>   Calculating wake trajectory ...
 Calculating source influence matrix ...

 Solving BL system ...

 Side 1 forced transition at x/c =  1.0000   80
 Side 2 forced transition at x/c =  1.0000   82

   1   rms: 0.5988E-02   max: -.3799E-01   D at    4  1   RLX: 0.602
       a =  2.250      CL = -0.0786
      Cm =  0.0046     CD =  0.05647   =>   CDf =  0.02305    CDp =  0.03342

 Side 1 forced transition at x/c =  1.0000   80
 Side 2 forced transition at x/c =  1.0000   82

   2   rms: 0.2403E-02   max: -.1478E-01   D at    4  1
       a =  2.250      CL = -0.0775
      Cm =  0.0046     CD =  0.05652   =>   CDf =  0.02307    CDp =  0.03344

 Side 1 forced transition at x/c =  1.0000   80
 Side 2 forced transition at x/c =  1.0000   82

   3   rms: 0.3189E-04   max: -.2571E-03   T at    3  2
       a =  2.250      CL = -0.0775
      Cm =  0.0046     CD =  0.05651   =>   CDf =  0.02309    CDp =  0.03342
 plradd ia,ip,cpol           46          79  7.28383735E-02

 Point added to stored polar  1
 Save file unspecified or not available
 Dump file unspecified or not available

.OPERva   c>  
.OPERva   c>  
.OPERva   c>   Calculating wake trajectory ...
 Calculating source influence matrix ...

 Solving BL system ...

 Side 1 forced transition at x/c =  1.0000   80
 Side 2 forced transition at x/c =  1.0000   82

   1   rms: 0.9771E-02   max: 0.1033E+00   T at    3  2   RLX: 0.600
       a =  2.300      CL = -0.0760
      Cm =  0.0046     CD =  0.05659   =>   CDf =  0.02309    CDp =  0.03351

 Side 1 forced transition at x/c =  1.0000   80
 Side 2 forced transition at x/c =  1.0000   82

   2   rms: 0.3797E-02   max: 0.4030E-01   D at    3  2
       a =  2.300      CL = -0.0749
      Cm =  0.0046     CD =  0.05664   =>   CDf =  0.02311    CDp =  0.03353

 Side 1 forced transition at x/c =  1.0000   80
 Side 2 forced transition at x/c =  1.0000   82

   3   rms: 0.3281E-04   max: -.2309E-03   D at    4  1
       a =  2.300      CL = -0.0749
      Cm =  0.0046     CD =  0.05663   =>   CDf =  0.02312    CDp =  0.03351
 plradd ia,ip,cpol           47          79  0.21976297    

 Point added to stored polar  1
 Save file unspecified or not available
 Dump file unspecified or not available

.OPERva   c>  
.OPERva   c>  
.OPERva   c>   Calculating wake trajectory ...
 Calculating source influence matrix ...

 Solving BL system ...

 Side 1 forced transition at x/c =  1.0000   80
 Side 2 forced transition at x/c =  1.0000   82

   1   rms: 0.7291E-02   max: -.4959E-01   D at    3  2   RLX: 0.597
       a =  2.350      CL = -0.0734
      Cm =  0.0046     CD =  0.05672   =>   CDf =  0.02312    CDp =  0.03360

 Side 1 forced transition at x/c =  1.0000   80
 Side 2 forced transition at x/c =  1.0000   82

   2   rms: 0.3035E-02   max: -.2263E-01   T at    3  2
       a =  2.350      CL = -0.0723
      Cm =  0.0046     CD =  0.05677   =>   CDf =  0.02314    CDp =  0.03362

 Side 1 forced transition at x/c =  1.0000   80
 Side 2 forced transition at x/c =  1.0000   82

   3   rms: 0.6260E-04   max: -.7937E-03   T at    3  2
       a =  2.350      CL = -0.0723
      Cm =  0.0046     CD =  0.05676   =>   CDf =  0.02315    CDp =  0.03360
 plradd ia,ip,cpol           48          79  0.21976297    

 Point added to stored polar  1
 Save file unspecified or not available
 Dump file unspecified or not available

.OPERva   c>  
.OPERva   c>  
.OPERva   c>   Calculating wake trajectory ...
 Calculating source influence matrix ...

 Solving BL system ...

 Side 1 forced transition at x/c =  1.0000   80
 Side 2 forced transition at x/c =  1.0000   82

   1   rms: 0.6709E-02   max: -.4718E-01   D at    4  1   RLX: 0.595
       a =  2.400      CL = -0.0708
      Cm =  0.0046     CD =  0.05685   =>   CDf =  0.02315    CDp =  0.03369

 Side 1 forced transition at x/c =  1.0000   80
 Side 2 forced transition at x/c =  1.0000   82

   2   rms: 0.2734E-02   max: -.1894E-01   D at    4  1
       a =  2.400      CL = -0.0697
      Cm =  0.0045     CD =  0.05689   =>   CDf =  0.02317    CDp =  0.03372

 Side 1 forced transition at x/c =  1.0000   80
 Side 2 forced transition at x/c =  1.0000   82

   3   rms: 0.2853E-04   max: 0.1065E-03   D at   75  2
       a =  2.400      CL = -0.0697
      Cm =  0.0045     CD =  0.05689   =>   CDf =  0.02319    CDp =  0.03370
 plradd ia,ip,cpol           49          79  0.21976297    

 Point added to stored polar  1
 Save file unspecified or not available
 Dump file unspecified or not available

.OPERva   c>  
.OPERva   c>  
.OPERva   c>   Calculating wake trajectory ...
 Calculating source influence matrix ...

 Solving BL system ...

 Side 1 forced transition at x/c =  1.0000   80
 Side 2 forced transition at x/c =  1.0000   82

   1   rms: 0.8972E-02   max: 0.7713E-01   T at    3  2   RLX: 0.592
       a =  2.450      CL = -0.0681
      Cm =  0.0045     CD =  0.05698   =>   CDf =  0.02319    CDp =  0.03379

 Side 1 forced transition at x/c =  1.0000   80
 Side 2 forced transition at x/c =  1.0000   82

   2   rms: 0.3498E-02   max: 0.2906E-01   D at    3  2
       a =  2.450      CL = -0.0670
      Cm =  0.0045     CD =  0.05703   =>   CDf =  0.02321    CDp =  0.03382

 Side 1 forced transition at x/c =  1.0000   80
 Side 2 forced transition at x/c =  1.0000   82

   3   rms: 0.3952E-04   max: -.3616E-03   D at    3  2
       a =  2.450      CL = -0.0670
      Cm =  0.0045     CD =  0.05702   =>   CDf =  0.02322    CDp =  0.03380
 plradd ia,ip,cpol           50          79  0.21976297    

 Point added to stored polar  1
 Save file unspecified or not available
 Dump file unspecified or not available

.OPERva   c>  
.OPERva   c>  
.OPERva   c>   Calculating wake trajectory ...
 Calculating source influence matrix ...

 Solving BL system ...

 Side 1 forced transition at x/c =  1.0000   80
 Side 2 forced transition at x/c =  1.0000   82

   1   rms: 0.1193E-01   max: -.1593E+00   D at    3  2   RLX: 0.590
       a =  2.500      CL = -0.0654
      Cm =  0.0045     CD =  0.05711   =>   CDf =  0.02329    CDp =  0.03382

 Side 1 forced transition at x/c =  1.0000   81
 Side 2 forced transition at x/c =  1.0000   81

   2   rms: 0.2199E-01   max: -.3814E+00   D at    2  1
       a =  2.500      CL = -0.0643
      Cm =  0.0045     CD =  0.05717   =>   CDf =  0.02325    CDp =  0.03392

 Side 1 forced transition at x/c =  1.0000   81
 Side 2 forced transition at x/c =  1.0000   81

   3   rms: 0.3837E-02   max: 0.5279E-01   D at    3  1
       a =  2.500      CL = -0.0643
      Cm =  0.0045     CD =  0.05716   =>   CDf =  0.02326    CDp =  0.03389

 Side 1 forced transition at x/c =  1.0000   81
 Side 2 forced transition at x/c =  1.0000   81

   4   rms: 0.5725E-04   max: 0.6950E-03   D at    6  1
       a =  2.500      CL = -0.0643
      Cm =  0.0045     CD =  0.05716   =>   CDf =  0.02326    CDp =  0.03389
 plradd ia,ip,cpol           51          80  0.21976297    

 Point added to stored polar  1
 Save file unspecified or not available
 Dump file unspecified or not available

.OPERva   c>  
.OPERva   c>  
.OPERva   c>   Calculating wake trajectory ...
 Calculating source influence matrix ...

 Solving BL system ...

 Side 1 forced transition at x/c =  1.0000   81
 Side 2 forced transition at x/c =  1.0000   81

   1   rms: 0.7614E-02   max: 0.7258E-01   D at    4  1   RLX: 0.588
       a =  2.550      CL = -0.0627
      Cm =  0.0045     CD =  0.05725   =>   CDf =  0.02326    CDp =  0.03399

 Side 1 forced transition at x/c =  1.0000   81
 Side 2 forced transition at x/c =  1.0000   81

   2   rms: 0.3008E-02   max: 0.2696E-01   D at    4  1
       a =  2.550      CL = -0.0616
      Cm =  0.0045     CD =  0.05731   =>   CDf =  0.02328    CDp =  0.03403

 Side 1 forced transition at x/c =  1.0000   81
 Side 2 forced transition at x/c =  1.0000   81

   3   rms: 0.3821E-04   max: -.4330E-03   D at    4  1
       a =  2.550      CL = -0.0616
      Cm =  0.0045     CD =  0.05730   =>   CDf =  0.02329    CDp =  0.03400
 plradd ia,ip,cpol           52          80  0.21976297    

 Point added to stored polar  1
 Save file unspecified or not available
 Dump file unspecified or not available

.OPERva   c>  
.OPERva   c>  
.OPERva   c>   Calculating wake trajectory ...
 Calculating source influence matrix ...

 Solving BL system ...

 Side 1 forced transition at x/c =  1.0000   81
 Side 2 forced transition at x/c =  1.0000   81

   1   rms: 0.1014E-01   max: -.7507E-01   D at    3  2   RLX: 0.585
       a =  2.600      CL = -0.0600
      Cm =  0.0044     CD =  0.05740   =>   CDf =  0.02329    CDp =  0.03410

 Side 1 forced transition at x/c =  1.0000   81
 Side 2 forced transition at x/c =  1.0000   81

   2   rms: 0.4489E-02   max: 0.3420E-01   T at    2  1
       a =  2.600      CL = -0.0588
      Cm =  0.0044     CD =  0.05745   =>   CDf =  0.02331    CDp =  0.03414

 Side 1 forced transition at x/c =  1.0000   81
 Side 2 forced transition at x/c =  1.0000   81

   3   rms: 0.5960E-04   max: -.6291E-03   D at    4  1
       a =  2.600      CL = -0.0588
      Cm =  0.0044     CD =  0.05744   =>   CDf =  0.02333    CDp =  0.03412
 plradd ia,ip,cpol           53          80  0.21976297    

 Point added to stored polar  1
 Save file unspecified or not available
 Dump file unspecified or not available

.OPERva   c>  
.OPERva   c>  
.OPERva   c>   Calculating wake trajectory ...
 Calculating source influence matrix ...

 Solving BL system ...

 Side 1 forced transition at x/c =  1.0000   81
 Side 2 forced transition at x/c =  1.0000   81

   1   rms: 0.1052E-01   max: 0.8896E-01   D at    3  1   RLX: 0.583
       a =  2.650      CL = -0.0572
      Cm =  0.0044     CD =  0.05754   =>   CDf =  0.02333    CDp =  0.03422

 Side 1 forced transition at x/c =  1.0000   81
 Side 2 forced transition at x/c =  1.0000   81

   2   rms: 0.4090E-02   max: 0.3796E-01   D at    3  2
       a =  2.650      CL = -0.0560
      Cm =  0.0044     CD =  0.05760   =>   CDf =  0.02334    CDp =  0.03426

 Side 1 forced transition at x/c =  1.0000   81
 Side 2 forced transition at x/c =  1.0000   81

   3   rms: 0.5774E-04   max: -.7274E-03   D at    3  1
       a =  2.650      CL = -0.0560
      Cm =  0.0044     CD =  0.05759   =>   CDf =  0.02336    CDp =  0.03423
 plradd ia,ip,cpol           54          80  0.21976297    

 Point added to stored polar  1
 Save file unspecified or not available
 Dump file unspecified or not available

.OPERva   c>  
.OPERva   c>  
.OPERva   c>   Calculating wake trajectory ...
 Calculating source influence matrix ...

 Solving BL system ...

 Side 1 forced transition at x/c =  1.0000   81
 Side 2 forced transition at x/c =  1.0000   81

   1   rms: 0.8263E-02   max: -.6605E-01   D at    3  1   RLX: 0.581
       a =  2.700      CL = -0.0544
      Cm =  0.0044     CD =  0.05769   =>   CDf =  0.02336    CDp =  0.03434

 Side 1 forced transition at x/c =  1.0000   81
 Side 2 forced transition at x/c =  1.0000   81

   2   rms: 0.3599E-02   max: -.2820E-01   D at    3  1
       a =  2.700      CL = -0.0532
      Cm =  0.0043     CD =  0.05775   =>   CDf =  0.02337    CDp =  0.03438

 Side 1 forced transition at x/c =  1.0000   81
 Side 2 forced transition at x/c =  1.0000   81

   3   rms: 0.3588E-04   max: -.2420E-03   D at    4  1
       a =  2.700      CL = -0.0532
      Cm =  0.0043     CD =  0.05774   =>   CDf =  0.02339    CDp =  0.03435
 plradd ia,ip,cpol           55          80  0.21976297    

 Point added to stored polar  1
 Save file unspecified or not available
 Dump file unspecified or not available

.OPERva   c>  
.OPERva   c>  
.OPERva   c>   Calculating wake trajectory ...
 Calculating source influence matrix ...

 Solving BL system ...

 Side 1 forced transition at x/c =  1.0000   81
 Side 2 forced transition at x/c =  1.0000   81

   1   rms: 0.1008E-01   max: -.1226E+00   D at    3  2   RLX: 0.578
       a =  2.750      CL = -0.0516
      Cm =  0.0043     CD =  0.05784   =>   CDf =  0.02339    CDp =  0.03446

 Side 1 forced transition at x/c =  1.0000   81
 Side 2 forced transition at x/c =  1.0000   81

   2   rms: 0.4578E-02   max: -.5740E-01   D at    3  2
       a =  2.750      CL = -0.0504
      Cm =  0.0043     CD =  0.05791   =>   CDf =  0.02340    CDp =  0.03450

 Side 1 forced transition at x/c =  1.0000   81
 Side 2 forced transition at x/c =  1.0000   81

   3   rms: 0.9636E-04   max: -.1415E-02   D at    3  2
       a =  2.750      CL = -0.0504
      Cm =  0.0043     CD =  0.05790   =>   CDf =  0.02342    CDp =  0.03448
 plradd ia,ip,cpol           56          80  0.21976297    

 Point added to stored polar  1
 Save file unspecified or not available
 Dump file unspecified or not available

.OPERva   c>  
.OPERva   c>  
.OPERva   c>   Calculating wake trajectory ...
 Calculating source influence matrix ...

 Solving BL system ...

 Side 1 forced transition at x/c =  1.0000   81
 Side 2 forced transition at x/c =  1.0000   81

   1   rms: 0.1488E-01   max: 0.1626E+00   D at    3  2   RLX: 0.576
       a =  2.800      CL = -0.0488
      Cm =  0.0043     CD =  0.05800   =>   CDf =  0.02342    CDp =  0.03459

 Side 1 forced transition at x/c =  1.0000   81
 Side 2 forced transition at x/c =  1.0000   81

   2   rms: 0.5601E-02   max: 0.6455E-01   D at    3  2
       a =  2.800      CL = -0.0476
      Cm =  0.0042     CD =  0.05806   =>   CDf =  0.02343    CDp =  0.03463

 Side 1 forced transition at x/c =  1.0000   81
 Side 2 forced transition at x/c =  1.0000   81

   3   rms: 0.8596E-04   max: 0.8548E-03   D at    5  2
       a =  2.800      CL = -0.0475
      Cm =  0.0042     CD =  0.05805   =>   CDf =  0.02345    CDp =  0.03461
 plradd ia,ip,cpol           57          80  0.21976297    

 Point added to stored polar  1
 Save file unspecified or not available
 Dump file unspecified or not available

.OPERva   c>  
.OPERva   c>  
.OPERva   c>   Calculating wake trajectory ...
 Calculating source influence matrix ...

 Solving BL system ...

 Side 1 forced transition at x/c =  1.0000   81
 Side 2 forced transition at x/c =  1.0000   81

   1   rms: 0.8652E-02   max: -.7213E-01   D at    3  1   RLX: 0.574
       a =  2.850      CL = -0.0459
      Cm =  0.0042     CD =  0.05816   =>   CDf =  0.02345    CDp =  0.03471

 Side 1 forced transition at x/c =  1.0000   81
 Side 2 forced transition at x/c =  1.0000   81

   2   rms: 0.3773E-02   max: -.3099E-01   D at    3  1
       a =  2.850      CL = -0.0447
      Cm =  0.0042     CD =  0.05823   =>   CDf =  0.02346    CDp =  0.03476

 Side 1 forced transition at x/c =  1.0000   81
 Side 2 forced transition at x/c =  1.0000   81

   3   rms: 0.3820E-04   max: -.3472E-03   D at    4  2
       a =  2.850      CL = -0.0447
      Cm =  0.0042     CD =  0.05821   =>   CDf =  0.02347    CDp =  0.03474
 plradd ia,ip,cpol           58          80  0.21976297    

 Point added to stored polar  1
 Save file unspecified or not available
 Dump file unspecified or not available

.OPERva   c>  
.OPERva   c>  
.OPERva   c>   Calculating wake trajectory ...
 Calculating source influence matrix ...

 Solving BL system ...

 Side 1 forced transition at x/c =  1.0000   81
 Side 2 forced transition at x/c =  1.0000   81

   1   rms: 0.6032E-02   max: -.2408E-01   C at   81  2   RLX: 0.572
       a =  2.900      CL = -0.0431
      Cm =  0.0041     CD =  0.05832   =>   CDf =  0.02347    CDp =  0.03485

 Side 1 forced transition at x/c =  1.0000   81
 Side 2 forced transition at x/c =  1.0000   81

   2   rms: 0.2607E-02   max: -.1031E-01   C at   81  2
       a =  2.900      CL = -0.0418
      Cm =  0.0041     CD =  0.05839   =>   CDf =  0.02349    CDp =  0.03490

 Side 1 forced transition at x/c =  1.0000   81
 Side 2 forced transition at x/c =  1.0000   81

   3   rms: 0.2323E-04   max: -.9328E-04   D at   91  2
       a =  2.900      CL = -0.0418
      Cm =  0.0041     CD =  0.05838   =>   CDf =  0.02350    CDp =  0.03488
 plradd ia,ip,cpol           59          80  0.20451273    

 Point added to stored polar  1
 Save file unspecified or not available
 Dump file unspecified or not available

.OPERva   c>  
.OPERva   c>  
.OPERva   c>   Calculating wake trajectory ...
 Calculating source influence matrix ...

[...]
 plradd ia,ip,cpol          135          84  9.14681777E-02

 Point added to stored polar  1
 Save file unspecified or not available
 Dump file unspecified or not available

.OPERva   c>  
.OPERva   c>  
.OPERva   c>   Calculating wake trajectory ...
 Calculating source influence matrix ...

 Solving BL system ...

 Side 1 forced transition at x/c =  1.0000   85
 Side 2 forced transition at x/c =  1.0000   77

   1   rms: 0.7998E-02   max: -.5546E-01   D at    3  2   RLX: 0.448
       a =  6.750      CL =  0.1843
      Cm = -0.0058     CD =  0.07894   =>   CDf =  0.02414    CDp =  0.05481

 Side 1 forced transition at x/c =  1.0000   85
 Side 2 forced transition at x/c =  1.0000   77

   2   rms: 0.4555E-02   max: -.3305E-01   D at    3  2
       a =  6.750      CL =  0.1858
      Cm = -0.0059     CD =  0.07915   =>   CDf =  0.02413    CDp =  0.05502

 Side 1 forced transition at x/c =  1.0000   85
 Side 2 forced transition at x/c =  1.0000   77

   3   rms: 0.6748E-04   max: -.4930E-03   D at    3  2
       a =  6.750      CL =  0.1858
      Cm = -0.0059     CD =  0.07912   =>   CDf =  0.02412    CDp =  0.05499
 plradd ia,ip,cpol          136          84  9.14681777E-02

 Point added to stored polar  1
 Save file unspecified or not available
 Dump file unspecified or not available

.OPERva   c>  
.OPERva   c>  
.OPERva   c>   Calculating wake trajectory ...
 Calculating source influence matrix ...

 Solving BL system ...

 Side 1 forced transition at x/c =  1.0000   85
 Side 2 forced transition at x/c =  1.0000   77

   1   rms: 0.1467E-01   max: -.1372E+00   T at    2  1   RLX: 0.447
       a =  6.800      CL =  0.1870
      Cm = -0.0060     CD =  0.07930   =>   CDf =  0.02413    CDp =  0.05518

 Side 1 forced transition at x/c =  1.0000   85
 Side 2 forced transition at x/c =  1.0000   77

   2   rms: 0.7237E-02   max: -.6528E-01   T at    2  1
       a =  6.800      CL =  0.1886
      Cm = -0.0061     CD =  0.07951   =>   CDf =  0.02412    CDp =  0.05539

 Side 1 forced transition at x/c =  1.0000   85
 Side 2 forced transition at x/c =  1.0000   77

   3   rms: 0.1679E-03   max: -.1326E-02   D at    4  2
       a =  6.800      CL =  0.1886
      Cm = -0.0061     CD =  0.07948   =>   CDf =  0.02411    CDp =  0.05537

 Side 1 forced transition at x/c =  1.0000   85
 Side 2 forced transition at x/c =  1.0000   77

   4   rms: 0.1921E-05   max: -.2472E-04   D at    3  1
       a =  6.800      CL =  0.1886
      Cm = -0.0061     CD =  0.07948   =>   CDf =  0.02411    CDp =  0.05537
 plradd ia,ip,cpol          137          84  9.14681777E-02

 Point added to stored polar  1
 Save file unspecified or not available
 Dump file unspecified or not available

.OPERva   c>  
.OPERva   c>  
.OPERva   c>   Calculating wake trajectory ...
 Calculating source influence matrix ...

 Solving BL system ...

 Side 1 forced transition at x/c =  1.0000   85
 Side 2 forced transition at x/c =  1.0000   77

   1   rms: 0.5935E-02   max: 0.3937E-01   D at    6  1   RLX: 0.445
       a =  6.850      CL =  0.1898
      Cm = -0.0062     CD =  0.07967   =>   CDf =  0.02411    CDp =  0.05556

 Side 1 forced transition at x/c =  1.0000   85
 Side 2 forced transition at x/c =  1.0000   77

   2   rms: 0.3276E-02   max: 0.2138E-01   D at    6  1
       a =  6.850      CL =  0.1914
      Cm = -0.0063     CD =  0.07988   =>   CDf =  0.02411    CDp =  0.05577

 Side 1 forced transition at x/c =  1.0000   85
 Side 2 forced transition at x/c =  1.0000   77

   3   rms: 0.2508E-04   max: -.1930E-03   D at    6  1
       a =  6.850      CL =  0.1914
      Cm = -0.0063     CD =  0.07985   =>   CDf =  0.02410    CDp =  0.05575
 plradd ia,ip,cpol          138          84  9.14681777E-02

 Point added to stored polar  1
 Save file unspecified or not available
 Dump file unspecified or not available

.OPERva   c>  
.OPERva   c>  
.OPERva   c>   Calculating wake trajectory ...
 Calculating source influence matrix ...

 Solving BL system ...

 Side 1 forced transition at x/c =  1.0000   85
 Side 2 forced transition at x/c =  1.0000   77

   1   rms: 0.7941E-02   max: 0.8234E-01   D at    3  1   RLX: 0.444
       a =  6.900      CL =  0.1926
      Cm = -0.0064     CD =  0.08004   =>   CDf =  0.02410    CDp =  0.05594

 Side 1 forced transition at x/c =  1.0000   85
 Side 2 forced transition at x/c =  1.0000   77

   2   rms: 0.4397E-02   max: 0.4480E-01   D at    3  1
       a =  6.900      CL =  0.1941
      Cm = -0.0065     CD =  0.08026   =>   CDf =  0.02410    CDp =  0.05616

 Side 1 forced transition at x/c =  1.0000   85
 Side 2 forced transition at x/c =  1.0000   77

   3   rms: 0.8101E-04   max: -.1031E-02   D at    3  1
       a =  6.900      CL =  0.1941
      Cm = -0.0065     CD =  0.08023   =>   CDf =  0.02409    CDp =  0.05613
 plradd ia,ip,cpol          139          84  9.14681777E-02

 Point added to stored polar  1
 Save file unspecified or not available
 Dump file unspecified or not available

.OPERva   c>  
.OPERva   c>  
.OPERva   c>   Calculating wake trajectory ...
 Calculating source influence matrix ...

 Solving BL system ...

 Side 1 forced transition at x/c =  1.0000   85
 Side 2 forced transition at x/c =  1.0000   77

   1   rms: 0.9574E-02   max: -.1241E+00   D at    3  1   RLX: 0.443
       a =  6.950      CL =  0.1953
      Cm = -0.0066     CD =  0.08042   =>   CDf =  0.02409    CDp =  0.05633

 Side 1 forced transition at x/c =  1.0000   85
 Side 2 forced transition at x/c =  1.0000   77

   2   rms: 0.5443E-02   max: -.6975E-01   D at    3  1
       a =  6.950      CL =  0.1969
      Cm = -0.0067     CD =  0.08064   =>   CDf =  0.02409    CDp =  0.05655

 Side 1 forced transition at x/c =  1.0000   85
 Side 2 forced transition at x/c =  1.0000   77

   3   rms: 0.6946E-04   max: -.9377E-03   D at    3  1
       a =  6.950      CL =  0.1969
      Cm = -0.0067     CD =  0.08060   =>   CDf =  0.02408    CDp =  0.05652
 plradd ia,ip,cpol          140          84  9.14681777E-02

 Point added to stored polar  1
 Save file unspecified or not available
 Dump file unspecified or not available

.OPERva   c>  
.OPERva   c>  
.OPERva   c>   Calculating wake trajectory ...
 Calculating source influence matrix ...

 Solving BL system ...

 Side 1 forced transition at x/c =  1.0000   85
 Side 2 forced transition at x/c =  1.0000   77

   1   rms: 0.6934E-02   max: 0.5134E-01   D at    3  1   RLX: 0.441
       a =  7.000      CL =  0.1980
      Cm = -0.0067     CD =  0.08079   =>   CDf =  0.02408    CDp =  0.05671

 Side 1 forced transition at x/c =  1.0000   85
 Side 2 forced transition at x/c =  1.0000   77

   2   rms: 0.3808E-02   max: 0.2698E-01   D at    3  1
       a =  7.000      CL =  0.1996
      Cm = -0.0068     CD =  0.08101   =>   CDf =  0.02407    CDp =  0.05694

 Side 1 forced transition at x/c =  1.0000   85
 Side 2 forced transition at x/c =  1.0000   77

   3   rms: 0.4036E-04   max: -.4152E-03   D at    3  1
       a =  7.000      CL =  0.1996
      Cm = -0.0068     CD =  0.08098   =>   CDf =  0.02407    CDp =  0.05691
 plradd ia,ip,cpol          141          84  9.14681777E-02

 Point added to stored polar  1
 Save file unspecified or not available
 Dump file unspecified or not available

.OPERva   c>  
.OPERva   c>  
.OPERva   c>   Calculating wake trajectory ...
 Calculating source influence matrix ...

 Solving BL system ...

 Side 1 forced transition at x/c =  1.0000   85
 Side 2 forced transition at x/c =  1.0000   77

   1   rms: 0.6706E-02   max: -.4360E-01   D at    4  2   RLX: 0.440
       a =  7.050      CL =  0.2008
      Cm = -0.0069     CD =  0.08117   =>   CDf =  0.02407    CDp =  0.05711

 Side 1 forced transition at x/c =  1.0000   85
 Side 2 forced transition at x/c =  1.0000   77

   2   rms: 0.3795E-02   max: -.2487E-01   D at    4  2
       a =  7.050      CL =  0.2023
      Cm = -0.0070     CD =  0.08139   =>   CDf =  0.02406    CDp =  0.05733

 Side 1 forced transition at x/c =  1.0000   85
 Side 2 forced transition at x/c =  1.0000   77

   3   rms: 0.4063E-04   max: -.4587E-03   D at    4  2
       a =  7.050      CL =  0.2023
      Cm = -0.0070     CD =  0.08136   =>   CDf =  0.02405    CDp =  0.05730
 plradd ia,ip,cpol          142          84  7.98050389E-02

 Point added to stored polar  1
 Save file unspecified or not available
 Dump file unspecified or not available

.OPERva   c>  
.OPERva   c>  
.OPERva   c>   Calculating wake trajectory ...
 Calculating source influence matrix ...

 Solving BL system ...

 Side 1 forced transition at x/c =  1.0000   85
 Side 2 forced transition at x/c =  1.0000   77

   1   rms: 0.6336E-02   max: -.3905E-01   D at    3  2   RLX: 0.439
       a =  7.100      CL =  0.2035
      Cm = -0.0071     CD =  0.08155   =>   CDf =  0.02405    CDp =  0.05749

 Side 1 forced transition at x/c =  1.0000   85
 Side 2 forced transition at x/c =  1.0000   77

   2   rms: 0.3556E-02   max: -.2284E-01   D at    3  2
       a =  7.100      CL =  0.2050
      Cm = -0.0072     CD =  0.08177   =>   CDf =  0.02405    CDp =  0.05772

 Side 1 forced transition at x/c =  1.0000   85
 Side 2 forced transition at x/c =  1.0000   77

   3   rms: 0.4305E-04   max: -.4452E-03   D at    3  2
       a =  7.100      CL =  0.2050
      Cm = -0.0072     CD =  0.08174   =>   CDf =  0.02404    CDp =  0.05770
 plradd ia,ip,cpol          143          84  7.98050389E-02

 Point added to stored polar  1
 Save file unspecified or not available
 Dump file unspecified or not available

.OPERva   c>  
.OPERva   c>  
.OPERva   c>   Calculating wake trajectory ...
 Calculating source influence matrix ...

 Solving BL system ...

 Side 1 forced transition at x/c =  1.0000   85
 Side 2 forced transition at x/c =  1.0000   77

   1   rms: 0.7950E-02   max: -.5415E-01   T at    2  2   RLX: 0.438
       a =  7.150      CL =  0.2062
      Cm = -0.0073     CD =  0.08193   =>   CDf =  0.02404    CDp =  0.05789

 Side 1 forced transition at x/c =  1.0000   85
 Side 2 forced transition at x/c =  1.0000   77

   2   rms: 0.4378E-02   max: -.2876E-01   T at    2  2
       a =  7.150      CL =  0.2077
      Cm = -0.0074     CD =  0.08216   =>   CDf =  0.02404    CDp =  0.05813

 Side 1 forced transition at x/c =  1.0000   85
 Side 2 forced transition at x/c =  1.0000   77

   3   rms: 0.4442E-04   max: -.4503E-03   D at    4  2
       a =  7.150      CL =  0.2077
      Cm = -0.0074     CD =  0.08212   =>   CDf =  0.02403    CDp =  0.05810
 plradd ia,ip,cpol          144          84  7.98050389E-02

 Point added to stored polar  1
 Save file unspecified or not available
 Dump file unspecified or not available

.OPERva   c>  
.OPERva   c>  
.OPERva   c>   Calculating wake trajectory ...
 Calculating source influence matrix ...

 Solving BL system ...

 Side 1 forced transition at x/c =  1.0000   85
 Side 2 forced transition at x/c =  1.0000   77

   1   rms: 0.6458E-02   max: 0.6051E-01   D at    3  1   RLX: 0.436
       a =  7.200      CL =  0.2089
      Cm = -0.0075     CD =  0.08232   =>   CDf =  0.02403    CDp =  0.05829

 Side 1 forced transition at x/c =  1.0000   85
 Side 2 forced transition at x/c =  1.0000   77

   2   rms: 0.3623E-02   max: 0.3371E-01   D at    3  1
       a =  7.200      CL =  0.2104
      Cm = -0.0076     CD =  0.08255   =>   CDf =  0.02402    CDp =  0.05853

 Side 1 forced transition at x/c =  1.0000   85
 Side 2 forced transition at x/c =  1.0000   77

   3   rms: 0.3900E-04   max: -.5099E-03   D at    3  1
       a =  7.200      CL =  0.2104
      Cm = -0.0076     CD =  0.08251   =>   CDf =  0.02401    CDp =  0.05850
 plradd ia,ip,cpol          145          84  7.98050389E-02

 Point added to stored polar  1
 Save file unspecified or not available
 Dump file unspecified or not available

.OPERva   c>  
.OPERva   c>  
.OPERva   c>   Calculating wake trajectory ...
 Calculating source influence matrix ...

 Solving BL system ...

 Side 1 forced transition at x/c =  1.0000   85
 Side 2 forced transition at x/c =  1.0000   77

   1   rms: 0.9075E-02   max: -.1158E+00   D at    3  1   RLX: 0.435
       a =  7.250      CL =  0.2116
      Cm = -0.0077     CD =  0.08271   =>   CDf =  0.02401    CDp =  0.05869

 Side 1 forced transition at x/c =  1.0000   85
 Side 2 forced transition at x/c =  1.0000   77

   2   rms: 0.5126E-02   max: -.6454E-01   D at    3  1
       a =  7.250      CL =  0.2132
      Cm = -0.0078     CD =  0.08293   =>   CDf =  0.02401    CDp =  0.05893

 Side 1 forced transition at x/c =  1.0000   85
 Side 2 forced transition at x/c =  1.0000   77

   3   rms: 0.5789E-04   max: -.5550E-03   D at    3  1
       a =  7.250      CL =  0.2132
      Cm = -0.0078     CD =  0.08290   =>   CDf =  0.02400    CDp =  0.05890
 plradd ia,ip,cpol          146          84  7.98050389E-02

 Point added to stored polar  1
 Save file unspecified or not available
 Dump file unspecified or not available

.OPERva   c>  
.OPERva   c>  
.OPERva   c>   Calculating wake trajectory ...
 Calculating source influence matrix ...

 Solving BL system ...

 Side 1 forced transition at x/c =  1.0000   85
 Side 2 forced transition at x/c =  1.0000   77

   1   rms: 0.9232E-02   max: -.1008E+00   D at    3  2   RLX: 0.434
       a =  7.300      CL =  0.2143
      Cm = -0.0079     CD =  0.08310   =>   CDf =  0.02400    CDp =  0.05910

 Side 1 forced transition at x/c =  1.0000   85
 Side 2 forced transition at x/c =  1.0000   77

   2   rms: 0.5456E-02   max: -.6111E-01   D at    3  2
       a =  7.300      CL =  0.2159
      Cm = -0.0080     CD =  0.08333   =>   CDf =  0.02399    CDp =  0.05934

 Side 1 forced transition at x/c =  1.0000   85
 Side 2 forced transition at x/c =  1.0000   77

   3   rms: 0.1523E-03   max: -.2386E-02   D at    3  2
       a =  7.300      CL =  0.2159
      Cm = -0.0080     CD =  0.08330   =>   CDf =  0.02398    CDp =  0.05931

 Side 1 forced transition at x/c =  1.0000   85
 Side 2 forced transition at x/c =  1.0000   77

   4   rms: 0.4551E-05   max: -.6189E-04   D at    3  2
       a =  7.300      CL =  0.2159
      Cm = -0.0080     CD =  0.08330   =>   CDf =  0.02398    CDp =  0.05931
 plradd ia,ip,cpol          147          84  7.98050389E-02

 Point added to stored polar  1
 Save file unspecified or not available
 Dump file unspecified or not available

.OPERva   c>  
.OPERva   c>  
.OPERva   c>   Calculating wake trajectory ...
 Calculating source influence matrix ...

 Solving BL system ...

 Side 1 forced transition at x/c =  1.0000   85
 Side 2 forced transition at x/c =  1.0000   77

   1   rms: 0.9137E-02   max: 0.9373E-01   D at    3  2   RLX: 0.432
       a =  7.350      CL =  0.2170
      Cm = -0.0081     CD =  0.08349   =>   CDf =  0.02398    CDp =  0.05951

 Side 1 forced transition at x/c =  1.0000   85
 Side 2 forced transition at x/c =  1.0000   77

   2   rms: 0.5078E-02   max: 0.5286E-01   D at    3  2
       a =  7.350      CL =  0.2185
      Cm = -0.0082     CD =  0.08373   =>   CDf =  0.02398    CDp =  0.05975

 Side 1 forced transition at x/c =  1.0000   85
 Side 2 forced transition at x/c =  1.0000   77

   3   rms: 0.5072E-04   max: -.4717E-03   D at    4  1
       a =  7.350      CL =  0.2185
      Cm = -0.0082     CD =  0.08369   =>   CDf =  0.02397    CDp =  0.05972
 plradd ia,ip,cpol          148          84  7.98050389E-02

 Point added to stored polar  1
 Save file unspecified or not available
 Dump file unspecified or not available

.OPERva   c>  
.OPERva   c>  
.OPERva   c>   Calculating wake trajectory ...
 Calculating source influence matrix ...

 Solving BL system ...

 Side 1 forced transition at x/c =  1.0000   85
 Side 2 forced transition at x/c =  1.0000   77

   1   rms: 0.6362E-02   max: 0.5291E-01   D at    3  1   RLX: 0.431
       a =  7.400      CL =  0.2196
      Cm = -0.0082     CD =  0.08389   =>   CDf =  0.02397    CDp =  0.05992

 Side 1 forced transition at x/c =  1.0000   85
 Side 2 forced transition at x/c =  1.0000   77

   2   rms: 0.3579E-02   max: 0.2895E-01   D at    3  1
       a =  7.400      CL =  0.2212
      Cm = -0.0084     CD =  0.08412   =>   CDf =  0.02396    CDp =  0.06016

 Side 1 forced transition at x/c =  1.0000   85
 Side 2 forced transition at x/c =  1.0000   77

   3   rms: 0.3947E-04   max: -.4632E-03   D at    3  1
       a =  7.400      CL =  0.2212
      Cm = -0.0084     CD =  0.08409   =>   CDf =  0.02395    CDp =  0.06013
 plradd ia,ip,cpol          149          84  7.98050389E-02

 Point added to stored polar  1
 Save file unspecified or not available
 Dump file unspecified or not available

.OPERva   c>  
.OPERva   c>  
.OPERva   c>   Calculating wake trajectory ...
 Calculating source influence matrix ...

 Solving BL system ...

 Side 1 forced transition at x/c =  1.0000   85
 Side 2 forced transition at x/c =  1.0000   77

   1   rms: 0.5497E-02   max: -.9247E-02   C at   77  2   RLX: 0.430
       a =  7.450      CL =  0.2223
      Cm = -0.0084     CD =  0.08429   =>   CDf =  0.02395    CDp =  0.06033

 Side 1 forced transition at x/c =  1.0000   85
 Side 2 forced transition at x/c =  1.0000   77

   2   rms: 0.3133E-02   max: -.5118E-02   C at   77  2
       a =  7.450      CL =  0.2238
      Cm = -0.0086     CD =  0.08452   =>   CDf =  0.02395    CDp =  0.06058

 Side 1 forced transition at x/c =  1.0000   85
 Side 2 forced transition at x/c =  1.0000   77

   3   rms: 0.3127E-04   max: 0.2516E-03   D at   93  2
       a =  7.450      CL =  0.2238
      Cm = -0.0086     CD =  0.08449   =>   CDf =  0.02394    CDp =  0.06055
 plradd ia,ip,cpol          150          84  6.91113770E-02

 Point added to stored polar  1
 Save file unspecified or not available
 Dump file unspecified or not available

.OPERva   c>  
.OPERva   c>  
.OPERva   c>   Calculating wake trajectory ...
 Calculating source influence matrix ...

 Solving BL system ...

 Side 1 forced transition at x/c =  1.0000   85
 Side 2 forced transition at x/c =  1.0000   77

   1   rms: 0.6914E-02   max: -.4235E-01   D at    3  2   RLX: 0.429
       a =  7.500      CL =  0.2250
      Cm = -0.0086     CD =  0.08469   =>   CDf =  0.02394    CDp =  0.06075

 Side 1 forced transition at x/c =  1.0000   85
 Side 2 forced transition at x/c =  1.0000   77

   2   rms: 0.3838E-02   max: -.2594E-01   D at    3  2
       a =  7.500      CL =  0.2265
      Cm = -0.0088     CD =  0.08493   =>   CDf =  0.02343    CDp =  0.06149

 Side 1 forced transition at x/c =  1.0000   86
 Side 2 forced transition at x/c =  1.0000   76

   3   rms: 0.3573E-03   max: 0.4386E-02   D at    3  2
       a =  7.500      CL =  0.2265
      Cm = -0.0088     CD =  0.08489   =>   CDf =  0.02390    CDp =  0.06099

 Side 1 forced transition at x/c =  1.0000   86
 Side 2 forced transition at x/c =  1.0000   76

   4   rms: 0.3105E-04   max: 0.4333E-03   D at    3  1
       a =  7.500      CL =  0.2265
      Cm = -0.0088     CD =  0.08489   =>   CDf =  0.02390    CDp =  0.06098
 plradd ia,ip,cpol          151          85  6.91113770E-02

 Point added to stored polar  1
 Save file unspecified or not available
 Dump file unspecified or not available

.OPERva   c>  
.OPERva   c>  
.OPERva   c>   Calculating wake trajectory ...
 Calculating source influence matrix ...

 Solving BL system ...

 Side 1 forced transition at x/c =  1.0000   86
 Side 2 forced transition at x/c =  1.0000   76

   1   rms: 0.6568E-02   max: -.4511E-01   D at    3  1   RLX: 0.427
       a =  7.550      CL =  0.2276
      Cm = -0.0088     CD =  0.08509   =>   CDf =  0.02390    CDp =  0.06119

 Side 1 forced transition at x/c =  1.0000   86
 Side 2 forced transition at x/c =  1.0000   76

   2   rms: 0.3770E-02   max: -.2585E-01   D at    3  2
       a =  7.550      CL =  0.2291
      Cm = -0.0089     CD =  0.08534   =>   CDf =  0.02390    CDp =  0.06144

 Side 1 forced transition at x/c =  1.0000   86
 Side 2 forced transition at x/c =  1.0000   76

   3   rms: 0.4686E-04   max: -.4011E-03   D at    4  1
       a =  7.550      CL =  0.2291
