
 ===================================================
  XFOIL Version 6.99
  Copyright (C) 2000   Mark Drela, Harold Youngren

  This software comes with ABSOLUTELY NO WARRANTY,
    subject to the GNU General Public License.

  Caveat computor
 ===================================================

 File  xfoil.def  not found

   QUIT    Exit program

  .OPER    Direct operating point(s)
  .MDES    Complex mapping design routine
  .QDES    Surface speed design routine
  .GDES    Geometry design routine

   SAVE f  Write airfoil to labeled coordinate file
   PSAV f  Write airfoil to plain coordinate file
   ISAV f  Write airfoil to ISES coordinate file
   MSAV f  Write airfoil to MSES coordinate file
   REVE    Reverse written-airfoil node ordering

   LOAD f  Read buffer airfoil from coordinate file
   NACA i  Set NACA 4,5-digit airfoil and buffer airfoil
   INTE    Set buffer airfoil by interpolating two airfoils
   NORM    Buffer airfoil normalization toggle
   XYCM rr Change CM reference location, currently  0.25000 0.00000

   BEND    Display structural properties of current airfoil

   PCOP    Set current-airfoil panel nodes directly from buffer airfoil points
   PANE    Set current-airfoil panel nodes ( 160 ) based on curvature
  .PPAR    Show/change paneling

  .PLOP    Plotting options

   WDEF f  Write  current-settings file
   RDEF f  Reread current-settings file
   NAME s  Specify new airfoil name
   NINC    Increment name version number

   Z       Zoom    | (available in all menus)
   U       Unzoom  | 

 XFOIL   c>  
 Labeled airfoil file.  Name:  SG6040                                          

 Number of input coordinate points:  81
 Counterclockwise ordering
 Max thickness =     0.160016  at x =   0.353
 Max camber    =     0.025156  at x =   0.582

  LE  x,y  =   0.00009  -0.00040  |   Chord =   0.99991
  TE  x,y  =   1.00000   0.00000  |

 Current airfoil nodes set from buffer airfoil nodes (  81 )

 XFOIL   c>  
  F  disk file
  C  current airfoil  SG6040                                          

  Select source of airfoil "0" ( F C ):  
Enter filename   s>  
  Select source of airfoil "1" ( F C ):  
Enter filename   s>  
 airfoil "0":  SG6040                                          
 airfoil "1":  WORTMANN FX 63-137 AIRFOIL                      

Specify interpolating fraction  0...1   r>   Max thickness =     0.155421  at x =   0.352
 Max camber    =     0.031211  at x =   0.568

Enter new airfoil name   s>  
 Result has been placed in buffer airfoil
 Execute PCOP or PANE to set new current airfoil

 XFOIL   c>  
 Sharp trailing edge

 Paneling parameters used...
   Number of panel nodes       160
   Panel bunching parameter    1.000
   TE/LE panel density ratio   0.150
   Refined-area/LE panel density ratio    0.200
   Top    side refined area x/c limits  1.000 1.000
   Bottom side refined area x/c limits  1.000 1.000

 XFOIL   c>  
 XFOIL   c>  
 XFOIL   c>  
.OPERi   c>  
.OPERi   c>  
 Sonic Cp =   -550.04      Sonic Q/Qinf =    26.096


.OPERi   c>  
 M  =    0.0350
 Re =    110000

.OPERv   c>  
 Polar  1 newly created for accumulation
 Airfoil archived with polar: BlendedAirfoil                                  

Enter  polar save filename  OR  <return> for no file   s>  
 Polar save file will NOT be written

Enter  polar dump filename  OR  <return> for no file   s>  
 Polar dump file will NOT be written

 Polar accumulation enabled

.OPERva   c>   Calculating unit vorticity distributions ...
 Calculating wake trajectory ...
 Calculating source influence matrix ...

 Solving BL system ...

 Initializing BL ...
    side            1  ...
 MRCHUE: Inverse mode at  53     Hk =   3.903
 MRCHUE: Inverse mode at  54     Hk =   4.252
 MRCHUE: Inverse mode at  55     Hk =   4.592
 MRCHUE: Inverse mode at  56     Hk =   4.925
 MRCHUE: Inverse mode at  57     Hk =   5.253
 MRCHUE: Inverse mode at  58     Hk =   5.576
 MRCHUE: Inverse mode at  59     Hk =   5.895
 MRCHUE: Inverse mode at  60     Hk =   6.208
 MRCHUE: Inverse mode at  61     Hk =   6.519
 MRCHUE: Inverse mode at  62     Hk =   6.826
 MRCHUE: Inverse mode at  63     Hk =   7.131
 MRCHUE: Inverse mode at  64     Hk =   7.433
 MRCHUE: Inverse mode at  65     Hk =   7.733
 MRCHUE: Inverse mode at  66     Hk =   8.031
 MRCHUE: Inverse mode at  67     Hk =   8.328
 MRCHUE: Inverse mode at  68     Hk =   8.624
 MRCHUE: Inverse mode at  69     Hk =   8.918
 MRCHUE: Inverse mode at  70     Hk =   9.211
 MRCHUE: Inverse mode at  71     Hk =   9.501
 MRCHUE: Inverse mode at  72     Hk =   8.068
 MRCHUE: Inverse mode at  73     Hk =   7.065
 MRCHUE: Inverse mode at  74     Hk =   6.286
 MRCHUE: Inverse mode at  75     Hk =   5.646
 MRCHUE: Inverse mode at  76     Hk =   5.108
 MRCHUE: Inverse mode at  77     Hk =   4.648
 MRCHUE: Inverse mode at  78     Hk =   4.254
 MRCHUE: Inverse mode at  79     Hk =   3.914
 MRCHUE: Inverse mode at  80     Hk =   3.619
 MRCHUE: Inverse mode at  81     Hk =   3.368
 MRCHUE: Inverse mode at  82     Hk =   3.162
 MRCHUE: Convergence failed at  83  side 1    Res =  0.5721E+01
    side            2  ...
 MRCHUE: Inverse mode at  48     Hk =   3.800
 MRCHUE: Inverse mode at  49     Hk =   4.124
 MRCHUE: Inverse mode at  50     Hk =   4.443
 MRCHUE: Inverse mode at  51     Hk =   4.758
 MRCHUE: Inverse mode at  52     Hk =   5.069
 MRCHUE: Inverse mode at  53     Hk =   5.376
 MRCHUE: Inverse mode at  54     Hk =   5.680
 MRCHUE: Inverse mode at  55     Hk =   5.979
 MRCHUE: Inverse mode at  56     Hk =   6.273
 MRCHUE: Inverse mode at  57     Hk =   6.562
 MRCHUE: Inverse mode at  58     Hk =   6.846
 MRCHUE: Inverse mode at  59     Hk =   7.125
 MRCHUE: Inverse mode at  60     Hk =   7.399
 MRCHUE: Inverse mode at  61     Hk =   7.670
 MRCHUE: Inverse mode at  62     Hk =   7.936
 MRCHUE: Inverse mode at  63     Hk =   8.198
 MRCHUE: Inverse mode at  64     Hk =   8.456
 MRCHUE: Inverse mode at  65     Hk =   8.711
 MRCHUE: Inverse mode at  66     Hk =   8.962
 MRCHUE: Inverse mode at  67     Hk =   9.209
 MRCHUE: Inverse mode at  68     Hk =   9.452
 MRCHUE: Inverse mode at  69     Hk =   9.692
 MRCHUE: Inverse mode at  70     Hk =   9.929
 MRCHUE: Inverse mode at  71     Hk =   9.316
 MRCHUE: Inverse mode at  72     Hk =   8.366
 MRCHUE: Inverse mode at  73     Hk =   7.637
 MRCHUE: Inverse mode at  74     Hk =   7.050
 MRCHUE: Inverse mode at  75     Hk =   6.566
 MRCHUE: Inverse mode at  76     Hk =   6.164
 MRCHUE: Inverse mode at  77     Hk =   5.829
 MRCHUE: Inverse mode at  78     Hk =   5.552
 MRCHUE: Inverse mode at  79     Hk =   5.394
 MRCHUE: Inverse mode at  81     Hk =   3.824
 MRCHUE: Inverse mode at  82     Hk =   3.574
 MRCHUE: Inverse mode at  83     Hk =   3.360

 MRCHDU: Convergence failed at  83  side 1    Res =  0.6245E+01
 Side 1  free  transition at x/c =  0.8291   72
 Side 2  free  transition at x/c =  0.8887   71
 idif Ue xi dudx           1  0.29962364      3.73375416E-03   80.247284    
 Uenew xinew           2  0.15083061      1.87957287E-03

   1   rms: 0.4085E+00   max: 0.1317E+01   T at   71  2   RLX: 0.440
       a =  0.000      CL =  0.3677
      Cm = -0.0852     CD =  0.01626   =>   CDf =  0.00745    CDp =  0.00880

 Side 1  free  transition at x/c =  0.8179   70
 Side 2  free  transition at x/c =  0.8602   70
 idif Ue xi dudx           1  0.27171072      3.69167328E-03   73.600967    
 Uenew xinew           2  0.13151227      1.78682804E-03

   2   rms: 0.3252E+00   max: 0.1416E+01   T at   70  1   RLX: 0.407
       a =  0.000      CL =  0.2481
      Cm = -0.0678     CD =  0.01819   =>   CDf =  0.00725    CDp =  0.01094

 Side 1  free  transition at x/c =  0.7963   68
 Side 2  free  transition at x/c =  0.8436   70

   3   rms: 0.1035E+00   max: 0.8326E+00   T at   70  2
       a =  0.000      CL =  0.2755
      Cm = -0.0709     CD =  0.02347   =>   CDf =  0.00706    CDp =  0.01640

 Side 1  free  transition at x/c =  0.7909   67
 Side 2  free  transition at x/c =  0.8056   68

   4   rms: 0.3638E+00   max: -.1975E+01   T at   67  1   RLX: 0.253
       a =  0.000      CL =  0.3615
      Cm = -0.0846     CD =  0.02255   =>   CDf =  0.00702    CDp =  0.01553

 MRCHDU: Convergence failed at  81  side 1    Res =  0.4967E+01
 Side 1  free  transition at x/c =  0.8166   69
 Side 2  free  transition at x/c =  0.8045   68

   5   rms: 0.7911E-01   max: 0.6058E+00   D at   69  1
       a =  0.000      CL =  0.3617
      Cm = -0.0860     CD =  0.02215   =>   CDf =  0.00716    CDp =  0.01499

 MRCHDU: Convergence failed at  80  side 1    Res =  0.2206E+01
 MRCHDU: Convergence failed at  81  side 1    Res =  0.2670E+01
 Side 1  free  transition at x/c =  0.8072   68
 Side 2  free  transition at x/c =  0.8036   68
 idif Ue xi dudx           1  0.19216867      3.11410427E-03   61.709129    
 Uenew xinew           2  6.95023388E-02  1.12628937E-03

   6   rms: 0.5247E+00   max: 0.2773E+01   T at   68  1   RLX: 0.463
       a =  0.000      CL =  0.1678
      Cm = -0.0599     CD =  0.02511   =>   CDf =  0.00719    CDp =  0.01792

 Side 1  free  transition at x/c =  0.7660   65
 Side 2  free  transition at x/c =  0.8058   69

   7   rms: 0.8866E-01   max: -.5368E+00   D at   66  1   RLX: 0.931
       a =  0.000      CL =  0.2283
      Cm = -0.0655     CD =  0.02573   =>   CDf =  0.00689    CDp =  0.01884

 Side 1  free  transition at x/c =  0.7763   65
 Side 2  free  transition at x/c =  0.8051   69

   8   rms: 0.4879E-01   max: 0.3474E+00   T at   65  1
       a =  0.000      CL =  0.1828
      Cm = -0.0591     CD =  0.02663   =>   CDf =  0.00698    CDp =  0.01965

 Side 1  free  transition at x/c =  0.7642   65
 Side 2  free  transition at x/c =  0.8042   69

   9   rms: 0.5426E-01   max: -.2396E+00   T at   65  1
       a =  0.000      CL =  0.2156
      Cm = -0.0639     CD =  0.02570   =>   CDf =  0.00690    CDp =  0.01879

 Side 1  free  transition at x/c =  0.7715   65
 Side 2  free  transition at x/c =  0.8046   69

  10   rms: 0.9565E-01   max: -.5124E+00   T at   65  1   RLX: 0.976
       a =  0.000      CL =  0.2936
      Cm = -0.0746     CD =  0.02381   =>   CDf =  0.00692    CDp =  0.01689
 VISCAL:  Convergence failed

.OPERva   c>  
.OPERva   c>  
.OPERva   c>   Calculating wake trajectory ...
 Calculating source influence matrix ...

 Solving BL system ...

 Side 1  free  transition at x/c =  0.7947   67
 Side 2  free  transition at x/c =  0.8045   68

   1   rms: 0.1086E+00   max: -.5363E+00   T at   67  1   RLX: 0.932
       a =  0.050      CL =  0.3889
      Cm = -0.0884     CD =  0.02141   =>   CDf =  0.00708    CDp =  0.01433

 MRCHDU: Convergence failed at  71  side 1    Res =  0.2754E+01
 MRCHDU: Convergence failed at  72  side 1    Res =  0.2761E+01
 MRCHDU: Convergence failed at  73  side 1    Res =  0.4053E+02
 MRCHDU: Convergence failed at  74  side 1    Res =  0.6314E+01
 MRCHDU: Convergence failed at  75  side 1    Res =  0.5032E+01
 MRCHDU: Convergence failed at  76  side 1    Res =  0.5724E+01
 MRCHDU: Convergence failed at  77  side 1    Res =  0.6975E+01
 MRCHDU: Convergence failed at  78  side 1    Res =  0.8907E+01
 MRCHDU: Convergence failed at  79  side 1    Res =  0.1305E+02
 MRCHDU: Convergence failed at  80  side 1    Res =  0.2408E+02
 MRCHDU: Convergence failed at  81  side 1    Res =  0.1125E+03
 MRCHDU: Convergence failed at  82  side 1    Res =  0.2870E+02
 Side 1  free  transition at x/c =  0.8218   70
 Side 2  free  transition at x/c =  0.8052   67
 idif Ue xi dudx           1  0.24978247      3.70740891E-03   67.373863    
 Uenew xinew           2  0.12144568      1.80256367E-03

   2   rms: 0.4021E+00   max: 0.2629E+01   D at   82  1   RLX: 0.571
       a =  0.050      CL =  0.2806
      Cm = -0.0842     CD =  0.01344   =>   CDf =  0.00717    CDp =  0.00628

 MRCHDU: Convergence failed at  70  side 1    Res =  0.1278E+01
 MRCHDU: Convergence failed at  71  side 1    Res =  0.1136E+02
 MRCHDU: Convergence failed at  72  side 1    Res =  0.4140E+02
 MRCHDU: Convergence failed at  73  side 1    Res =  0.1904E+01
 Side 1  free  transition at x/c =  0.8036   68
 Side 2  free  transition at x/c =  0.8069   68
 idif Ue xi dudx           2  0.32671562      4.74417210E-03   68.866730    
 Uenew xinew           3  0.18982130      2.75635719E-03

   3   rms: 0.2207E+01   max: 0.1248E+02   T at   68  1   RLX: 0.120
       a =  0.050      CL =  0.0726
      Cm = -0.0575     CD =  0.02669   =>   CDf =  0.00714    CDp =  0.01955

 Side 1  free  transition at x/c =  0.7602   63
 Side 2  free  transition at x/c =  0.8054   70

   4   rms: 0.4305E+00   max: -.2472E+01   T at   63  1   RLX: 0.202
       a =  0.050      CL =  0.1198
      Cm = -0.0472     CD =  0.03331   =>   CDf =  0.00678    CDp =  0.02653

 Side 1  free  transition at x/c =  0.7783   65
 Side 2  free  transition at x/c =  0.8075   69

   5   rms: 0.1116E+00   max: 0.8502E+00   D at   68  1   RLX: 0.769
       a =  0.050      CL =  0.1862
      Cm = -0.0575     CD =  0.02703   =>   CDf =  0.00694    CDp =  0.02009

 Side 1  free  transition at x/c =  0.7727   65
 Side 2  free  transition at x/c =  0.8068   69

   6   rms: 0.9343E-01   max: -.3277E+00   D at   91  2
       a =  0.050      CL =  0.2709
      Cm = -0.0701     CD =  0.02370   =>   CDf =  0.00691    CDp =  0.01679

 Side 1  free  transition at x/c =  0.7870   67
 Side 2  free  transition at x/c =  0.8064   68

   7   rms: 0.3343E-01   max: 0.1847E+00   D at   72  1
       a =  0.050      CL =  0.2707
      Cm = -0.0709     CD =  0.02477   =>   CDf =  0.00706    CDp =  0.01771

 Side 1  free  transition at x/c =  0.7818   67
 Side 2  free  transition at x/c =  0.8057   68

   8   rms: 0.2053E-02   max: -.1701E-01   D at   67  1
       a =  0.050      CL =  0.2715
      Cm = -0.0711     CD =  0.02465   =>   CDf =  0.00703    CDp =  0.01762

 Side 1  free  transition at x/c =  0.7820   67
 Side 2  free  transition at x/c =  0.8058   68

   9   rms: 0.2689E-04   max: 0.1767E-03   D at   71  2
       a =  0.050      CL =  0.2715
      Cm = -0.0711     CD =  0.02465   =>   CDf =  0.00703    CDp =  0.01762
 plradd ia,ip,cpol            1          80  0.25820407    

 Point added to stored polar  1
 Save file unspecified or not available
 Dump file unspecified or not available

.OPERva   c>  
.OPERva   c>  
.OPERva   c>   Calculating wake trajectory ...
 Calculating source influence matrix ...

 Solving BL system ...

 Side 1  free  transition at x/c =  0.7820   67
 Side 2  free  transition at x/c =  0.8058   68

   1   rms: 0.1121E-01   max: 0.7677E-01   D at    3  1
       a =  0.100      CL =  0.2796
      Cm = -0.0713     CD =  0.02454   =>   CDf =  0.00703    CDp =  0.01751

 Side 1  free  transition at x/c =  0.7814   67
 Side 2  free  transition at x/c =  0.8073   68

   2   rms: 0.3478E-03   max: -.2742E-02   D at   68  2
       a =  0.100      CL =  0.2797
      Cm = -0.0713     CD =  0.02455   =>   CDf =  0.00704    CDp =  0.01751

 Side 1  free  transition at x/c =  0.7814   67
 Side 2  free  transition at x/c =  0.8074   68

   3   rms: 0.3896E-05   max: 0.3265E-04   D at   83  2
       a =  0.100      CL =  0.2797
      Cm = -0.0713     CD =  0.02455   =>   CDf =  0.00704    CDp =  0.01751
 plradd ia,ip,cpol            2          80  0.25820407    

 Point added to stored polar  1
 Save file unspecified or not available
 Dump file unspecified or not available

.OPERva   c>  
.OPERva   c>  
.OPERva   c>   Calculating wake trajectory ...
 Calculating source influence matrix ...

 Solving BL system ...

 Side 1  free  transition at x/c =  0.7814   67
 Side 2  free  transition at x/c =  0.8074   68

   1   rms: 0.1061E-01   max: -.3550E-01   T at   68  2
       a =  0.150      CL =  0.2879
      Cm = -0.0716     CD =  0.02444   =>   CDf =  0.00704    CDp =  0.01740

 Side 1  free  transition at x/c =  0.7808   67
 Side 2  free  transition at x/c =  0.8090   68

   2   rms: 0.4424E-03   max: -.3126E-02   D at   70  2
       a =  0.150      CL =  0.2882
      Cm = -0.0717     CD =  0.02445   =>   CDf =  0.00705    CDp =  0.01740

 Side 1  free  transition at x/c =  0.7808   67
 Side 2  free  transition at x/c =  0.8090   68

   3   rms: 0.4857E-05   max: 0.3588E-04   D at   83  2
       a =  0.150      CL =  0.2882
      Cm = -0.0717     CD =  0.02445   =>   CDf =  0.00706    CDp =  0.01740
 plradd ia,ip,cpol            3          80  0.25820407    

 Point added to stored polar  1
 Save file unspecified or not available
 Dump file unspecified or not available

.OPERva   c>  
.OPERva   c>  
.OPERva   c>   Calculating wake trajectory ...
 Calculating source influence matrix ...

 Solving BL system ...

 Side 1  free  transition at x/c =  0.7808   67
 Side 2  free  transition at x/c =  0.8090   68

   1   rms: 0.1094E-01   max: -.3454E-01   T at   68  2
       a =  0.200      CL =  0.2967
      Cm = -0.0721     CD =  0.02435   =>   CDf =  0.00706    CDp =  0.01729

 Side 1  free  transition at x/c =  0.7803   67
 Side 2  free  transition at x/c =  0.8106   68

   2   rms: 0.4441E-03   max: -.2748E-02   D at   70  2
       a =  0.200      CL =  0.2969
      Cm = -0.0722     CD =  0.02435   =>   CDf =  0.00707    CDp =  0.01728

 Side 1  free  transition at x/c =  0.7803   67
 Side 2  free  transition at x/c =  0.8107   68

   3   rms: 0.3759E-05   max: 0.3169E-04   D at   83  2
       a =  0.200      CL =  0.2969
      Cm = -0.0722     CD =  0.02435   =>   CDf =  0.00707    CDp =  0.01728
 plradd ia,ip,cpol            4          80  0.25820407    

 Point added to stored polar  1
 Save file unspecified or not available
 Dump file unspecified or not available

.OPERva   c>  
.OPERva   c>  
.OPERva   c>   Calculating wake trajectory ...
 Calculating source influence matrix ...

 Solving BL system ...

 Side 1  free  transition at x/c =  0.7803   67
 Side 2  free  transition at x/c =  0.8107   68

   1   rms: 0.1164E-01   max: -.7499E-01   D at    4  1
       a =  0.250      CL =  0.3059
      Cm = -0.0727     CD =  0.02424   =>   CDf =  0.00707    CDp =  0.01717

 Side 1  free  transition at x/c =  0.7798   67
 Side 2  free  transition at x/c =  0.8124   68

   2   rms: 0.3781E-03   max: -.2844E-02   D at   71  2
       a =  0.250      CL =  0.3061
      Cm = -0.0727     CD =  0.02425   =>   CDf =  0.00709    CDp =  0.01716

 Side 1  free  transition at x/c =  0.7798   67
 Side 2  free  transition at x/c =  0.8124   68

   3   rms: 0.3032E-05   max: 0.2951E-04   D at   83  2
       a =  0.250      CL =  0.3061
      Cm = -0.0727     CD =  0.02425   =>   CDf =  0.00709    CDp =  0.01716
 plradd ia,ip,cpol            5          80  0.25820407    

 Point added to stored polar  1
 Save file unspecified or not available
 Dump file unspecified or not available

.OPERva   c>  
.OPERva   c>  
.OPERva   c>   Calculating wake trajectory ...
 Calculating source influence matrix ...

 Solving BL system ...

 Side 1  free  transition at x/c =  0.7798   67
 Side 2  free  transition at x/c =  0.8124   68

   1   rms: 0.1112E-01   max: -.3734E-01   T at   68  2
       a =  0.300      CL =  0.3156
      Cm = -0.0734     CD =  0.02414   =>   CDf =  0.00709    CDp =  0.01705

 Side 1  free  transition at x/c =  0.7793   67
 Side 2  free  transition at x/c =  0.8142   68

   2   rms: 0.4286E-03   max: -.3209E-02   D at   71  2
       a =  0.300      CL =  0.3158
      Cm = -0.0734     CD =  0.02414   =>   CDf =  0.00711    CDp =  0.01704

 Side 1  free  transition at x/c =  0.7793   67
 Side 2  free  transition at x/c =  0.8142   68

   3   rms: 0.4437E-05   max: 0.2444E-04   D at   83  2
       a =  0.300      CL =  0.3158
      Cm = -0.0734     CD =  0.02414   =>   CDf =  0.00711    CDp =  0.01703
 plradd ia,ip,cpol            6          80  0.25820407    

 Point added to stored polar  1
 Save file unspecified or not available
 Dump file unspecified or not available

.OPERva   c>  
.OPERva   c>  
.OPERva   c>   Calculating wake trajectory ...
 Calculating source influence matrix ...

 Solving BL system ...

 Side 1  free  transition at x/c =  0.7793   67
 Side 2  free  transition at x/c =  0.8142   68

   1   rms: 0.1150E-01   max: -.4186E-01   T at   68  2
       a =  0.350      CL =  0.3255
      Cm = -0.0741     CD =  0.02404   =>   CDf =  0.00711    CDp =  0.01693

 Side 1  free  transition at x/c =  0.7788   67
 Side 2  free  transition at x/c =  0.8160   68

   2   rms: 0.5322E-03   max: -.4125E-02   D at   71  2
       a =  0.350      CL =  0.3258
      Cm = -0.0742     CD =  0.02404   =>   CDf =  0.00713    CDp =  0.01691

 Side 1  free  transition at x/c =  0.7788   67
 Side 2  free  transition at x/c =  0.8161   68

   3   rms: 0.4761E-05   max: 0.3053E-04   D at   83  2
       a =  0.350      CL =  0.3258
      Cm = -0.0742     CD =  0.02404   =>   CDf =  0.00713    CDp =  0.01691
 plradd ia,ip,cpol            7          80  0.25820407    

 Point added to stored polar  1
 Save file unspecified or not available
 Dump file unspecified or not available

.OPERva   c>  
.OPERva   c>  
.OPERva   c>   Calculating wake trajectory ...
 Calculating source influence matrix ...

 Solving BL system ...

 Side 1  free  transition at x/c =  0.7788   67
 Side 2  free  transition at x/c =  0.8161   68

   1   rms: 0.1197E-01   max: -.4539E-01   T at   68  2
       a =  0.400      CL =  0.3362
      Cm = -0.0751     CD =  0.02393   =>   CDf =  0.00709    CDp =  0.01685

 Side 1  free  transition at x/c =  0.7785   67
 Side 2  free  transition at x/c =  0.8180   68

   2   rms: 0.1320E-01   max: -.1715E+00   D at    2  1
       a =  0.400      CL =  0.3435
      Cm = -0.0761     CD =  0.02371   =>   CDf =  0.00715    CDp =  0.01656

 Side 1  free  transition at x/c =  0.7806   68
 Side 2  free  transition at x/c =  0.8176   68

   3   rms: 0.1994E-01   max: 0.9759E-01   D at   71  1
       a =  0.400      CL =  0.3352
      Cm = -0.0749     CD =  0.02394   =>   CDf =  0.00716    CDp =  0.01679

 Side 1  free  transition at x/c =  0.7784   67
 Side 2  free  transition at x/c =  0.8177   68

   4   rms: 0.9807E-02   max: -.5659E-01   T at   67  1
       a =  0.400      CL =  0.3437
      Cm = -0.0761     CD =  0.02371   =>   CDf =  0.00715    CDp =  0.01656

 Side 1  free  transition at x/c =  0.7807   68
 Side 2  free  transition at x/c =  0.8176   68

   5   rms: 0.2035E-01   max: 0.1000E+00   D at   71  1
       a =  0.400      CL =  0.3352
      Cm = -0.0749     CD =  0.02394   =>   CDf =  0.00716    CDp =  0.01679

 Side 1  free  transition at x/c =  0.7783   67
 Side 2  free  transition at x/c =  0.8177   68

   6   rms: 0.9844E-02   max: -.5672E-01   T at   67  1
       a =  0.400      CL =  0.3437
      Cm = -0.0761     CD =  0.02371   =>   CDf =  0.00715    CDp =  0.01656

 Side 1  free  transition at x/c =  0.7807   68
 Side 2  free  transition at x/c =  0.8176   68

   7   rms: 0.2035E-01   max: 0.1001E+00   D at   71  1
       a =  0.400      CL =  0.3352
      Cm = -0.0749     CD =  0.02394   =>   CDf =  0.00716    CDp =  0.01679

 Side 1  free  transition at x/c =  0.7783   67
 Side 2  free  transition at x/c =  0.8177   68

   8   rms: 0.9845E-02   max: -.5674E-01   T at   67  1
       a =  0.400      CL =  0.3437
      Cm = -0.0761     CD =  0.02371   =>   CDf =  0.00715    CDp =  0.01656

 Side 1  free  transition at x/c =  0.7807   68
 Side 2  free  transition at x/c =  0.8176   68

   9   rms: 0.2036E-01   max: 0.1001E+00   D at   71  1
       a =  0.400      CL =  0.3352
      Cm = -0.0749     CD =  0.02394   =>   CDf =  0.00716    CDp =  0.01679

 Side 1  free  transition at x/c =  0.7783   67
 Side 2  free  transition at x/c =  0.8177   68

  10   rms: 0.9846E-02   max: -.5674E-01   T at   67  1
       a =  0.400      CL =  0.3437
      Cm = -0.0761     CD =  0.02371   =>   CDf =  0.00715    CDp =  0.01656
 VISCAL:  Convergence failed

.OPERva   c>  
.OPERva   c>  
.OPERva   c>   Calculating wake trajectory ...
 Calculating source influence matrix ...

 Solving BL system ...

 Side 1  free  transition at x/c =  0.7807   68
 Side 2  free  transition at x/c =  0.8176   68

   1   rms: 0.1876E-01   max: 0.9849E-01   T at   68  1
       a =  0.450      CL =  0.3430
      Cm = -0.0751     CD =  0.02382   =>   CDf =  0.00716    CDp =  0.01666

 Side 1  free  transition at x/c =  0.7779   67
 Side 2  free  transition at x/c =  0.8188   68

   2   rms: 0.2607E-01   max: -.1475E+00   T at   67  1
       a =  0.450      CL =  0.3658
      Cm = -0.0784     CD =  0.02322   =>   CDf =  0.00715    CDp =  0.01607

 Side 1  free  transition at x/c =  0.7844   68
 Side 2  free  transition at x/c =  0.8186   68

   3   rms: 0.5327E-01   max: 0.2757E+00   D at   70  1
       a =  0.450      CL =  0.3416
      Cm = -0.0749     CD =  0.02380   =>   CDf =  0.00718    CDp =  0.01662

 Side 1  free  transition at x/c =  0.7775   67
 Side 2  free  transition at x/c =  0.8188   68

   4   rms: 0.3077E-01   max: -.1665E+00   T at   67  1
       a =  0.450      CL =  0.3676
      Cm = -0.0787     CD =  0.02319   =>   CDf =  0.00715    CDp =  0.01604

 Side 1  free  transition at x/c =  0.7850   68
 Side 2  free  transition at x/c =  0.8186   68

   5   rms: 0.5724E-01   max: 0.2959E+00   D at   70  1
       a =  0.450      CL =  0.3413
      Cm = -0.0748     CD =  0.02379   =>   CDf =  0.00718    CDp =  0.01661

 Side 1  free  transition at x/c =  0.7775   67
 Side 2  free  transition at x/c =  0.8188   68

   6   rms: 0.3148E-01   max: -.1692E+00   T at   67  1
       a =  0.450      CL =  0.3678
      Cm = -0.0787     CD =  0.02318   =>   CDf =  0.00715    CDp =  0.01604

 Side 1  free  transition at x/c =  0.7851   68
 Side 2  free  transition at x/c =  0.8186   68

   7   rms: 0.5784E-01   max: 0.2991E+00   D at   70  1
       a =  0.450      CL =  0.3413
      Cm = -0.0748     CD =  0.02379   =>   CDf =  0.00718    CDp =  0.01661

 Side 1  free  transition at x/c =  0.7775   67
 Side 2  free  transition at x/c =  0.8188   68

   8   rms: 0.3158E-01   max: -.1695E+00   T at   67  1
       a =  0.450      CL =  0.3678
      Cm = -0.0787     CD =  0.02318   =>   CDf =  0.00715    CDp =  0.01604

 Side 1  free  transition at x/c =  0.7851   68
 Side 2  free  transition at x/c =  0.8186   68

   9   rms: 0.5792E-01   max: 0.2995E+00   D at   70  1
       a =  0.450      CL =  0.3413
      Cm = -0.0748     CD =  0.02379   =>   CDf =  0.00718    CDp =  0.01661

 Side 1  free  transition at x/c =  0.7775   67
 Side 2  free  transition at x/c =  0.8188   68

  10   rms: 0.3159E-01   max: -.1696E+00   T at   67  1
       a =  0.450      CL =  0.3678
      Cm = -0.0787     CD =  0.02318   =>   CDf =  0.00715    CDp =  0.01604
 VISCAL:  Convergence failed

.OPERva   c>  
.OPERva   c>  
.OPERva   c>   Calculating wake trajectory ...
 Calculating source influence matrix ...

 Solving BL system ...

 Side 1  free  transition at x/c =  0.7851   68
 Side 2  free  transition at x/c =  0.8186   68

   1   rms: 0.5460E-01   max: 0.2864E+00   D at   70  1
       a =  0.500      CL =  0.3486
      Cm = -0.0750     CD =  0.02369   =>   CDf =  0.00718    CDp =  0.01651

 Side 1  free  transition at x/c =  0.7768   67
 Side 2  free  transition at x/c =  0.8201   68

   2   rms: 0.5932E-01   max: -.3177E+00   T at   67  1
       a =  0.500      CL =  0.3992
      Cm = -0.0825     CD =  0.02247   =>   CDf =  0.00715    CDp =  0.01532

 MRCHDU: Convergence failed at  82  side 1    Res =  0.2052E+01
 Side 1  free  transition at x/c =  0.7924   68
 Side 2  free  transition at x/c =  0.8194   68

   3   rms: 0.1002E+00   max: 0.5670E+00   D at   70  1
       a =  0.500      CL =  0.3596
      Cm = -0.0767     CD =  0.02302   =>   CDf =  0.00721    CDp =  0.01581

 Side 1  free  transition at x/c =  0.7789   68
 Side 2  free  transition at x/c =  0.8201   68

   4   rms: 0.1193E-01   max: 0.7122E-01   T at   68  1
       a =  0.500      CL =  0.3516
      Cm = -0.0754     CD =  0.02373   =>   CDf =  0.00716    CDp =  0.01658

 Side 1  free  transition at x/c =  0.7775   67
 Side 2  free  transition at x/c =  0.8201   68

   5   rms: 0.4614E-01   max: -.2598E+00   T at   67  1
       a =  0.500      CL =  0.3922
      Cm = -0.0814     CD =  0.02262   =>   CDf =  0.00716    CDp =  0.01546

 Side 1  free  transition at x/c =  0.7900   68
 Side 2  free  transition at x/c =  0.8195   68

   6   rms: 0.8975E-01   max: 0.5038E+00   D at   70  1
       a =  0.500      CL =  0.3531
      Cm = -0.0757     CD =  0.02340   =>   CDf =  0.00720    CDp =  0.01620

 Side 1  free  transition at x/c =  0.7776   67
 Side 2  free  transition at x/c =  0.8201   68

   7   rms: 0.4526E-01   max: -.2357E+00   T at   67  1
       a =  0.500      CL =  0.3895
      Cm = -0.0810     CD =  0.02277   =>   CDf =  0.00715    CDp =  0.01562

 Side 1  free  transition at x/c =  0.7889   68
 Side 2  free  transition at x/c =  0.8195   68

   8   rms: 0.8436E-01   max: 0.4628E+00   D at   70  1
       a =  0.500      CL =  0.3517
      Cm = -0.0755     CD =  0.02347   =>   CDf =  0.00720    CDp =  0.01627

 Side 1  free  transition at x/c =  0.7774   67
 Side 2  free  transition at x/c =  0.8201   68

   9   rms: 0.4859E-01   max: -.2555E+00   T at   67  1
       a =  0.500      CL =  0.3917
      Cm = -0.0814     CD =  0.02270   =>   CDf =  0.00715    CDp =  0.01555

 Side 1  free  transition at x/c =  0.7897   68
 Side 2  free  transition at x/c =  0.8195   68

  10   rms: 0.8834E-01   max: 0.4901E+00   D at   70  1
       a =  0.500      CL =  0.3526
      Cm = -0.0756     CD =  0.02342   =>   CDf =  0.00720    CDp =  0.01622
 VISCAL:  Convergence failed

.OPERva   c>  
.OPERva   c>  
.OPERva   c>   Calculating wake trajectory ...
 Calculating source influence matrix ...

 Solving BL system ...

 Side 1  free  transition at x/c =  0.7776   67
 Side 2  free  transition at x/c =  0.8201   68

   1   rms: 0.6979E-01   max: -.3151E+00   T at   67  1
       a =  0.550      CL =  0.4126
      Cm = -0.0835     CD =  0.02228   =>   CDf =  0.00715    CDp =  0.01513

 MRCHDU: Convergence failed at  81  side 1    Res =  0.8842E+01
 MRCHDU: Convergence failed at  82  side 1    Res =  0.3109E+02
 Side 1  free  transition at x/c =  0.7934   68
 Side 2  free  transition at x/c =  0.8205   68

   2   rms: 0.1055E+00   max: 0.6002E+00   D at   70  1
       a =  0.550      CL =  0.3769
      Cm = -0.0784     CD =  0.02233   =>   CDf =  0.00722    CDp =  0.01511

 Side 1  free  transition at x/c =  0.7808   68
 Side 2  free  transition at x/c =  0.8212   68

   3   rms: 0.2854E-01   max: 0.1606E+00   T at   68  1
       a =  0.550      CL =  0.3576
      Cm = -0.0754     CD =  0.02364   =>   CDf =  0.00717    CDp =  0.01647

 Side 1  free  transition at x/c =  0.7764   67
 Side 2  free  transition at x/c =  0.8213   68

   4   rms: 0.9598E-01   max: -.5171E+00   T at   67  1   RLX: 0.967
       a =  0.550      CL =  0.4378
      Cm = -0.0873     CD =  0.02150   =>   CDf =  0.00716    CDp =  0.01435

 MRCHDU: Convergence failed at  72  side 1    Res =  0.1820E+01
 MRCHDU: Convergence failed at  73  side 1    Res =  0.4174E+02
 MRCHDU: Convergence failed at  74  side 1    Res =  0.3724E+01
 MRCHDU: Convergence failed at  75  side 1    Res =  0.2582E+01
 MRCHDU: Convergence failed at  76  side 1    Res =  0.2314E+01
 MRCHDU: Convergence failed at  77  side 1    Res =  0.2530E+01
 MRCHDU: Convergence failed at  78  side 1    Res =  0.3036E+01
 MRCHDU: Convergence failed at  79  side 1    Res =  0.3993E+01
 MRCHDU: Convergence failed at  80  side 1    Res =  0.6073E+01
 MRCHDU: Convergence failed at  81  side 1    Res =  0.1176E+02
 MRCHDU: Convergence failed at  82  side 1    Res =  0.8949E+02
 Side 1  free  transition at x/c =  0.8028   69
 Side 2  free  transition at x/c =  0.8201   68

   5   rms: 0.2609E+00   max: 0.1609E+01   D at   82  1   RLX: 0.932
       a =  0.550      CL =  0.3196
      Cm = -0.0675     CD =  0.01671   =>   CDf =  0.00724    CDp =  0.00946

 MRCHDU: Convergence failed at  71  side 1    Res =  0.2789E+01
 MRCHDU: Convergence failed at  72  side 1    Res =  0.7089E+01
 MRCHDU: Convergence failed at  73  side 1    Res =  0.4330E+01
 MRCHDU: Convergence failed at  74  side 1    Res =  0.4927E+01
 MRCHDU: Convergence failed at  75  side 1    Res =  0.9430E+01
 MRCHDU: Convergence failed at  76  side 1    Res =  0.1925E+02
 MRCHDU: Convergence failed at  77  side 1    Res =  0.4711E+01
 MRCHDU: Convergence failed at  78  side 1    Res =  0.2756E+01
 MRCHDU: Convergence failed at  79  side 1    Res =  0.2096E+01
 MRCHDU: Convergence failed at  80  side 1    Res =  0.2064E+01
 MRCHDU: Convergence failed at  81  side 1    Res =  0.2593E+01
 MRCHDU: Convergence failed at  82  side 1    Res =  0.4297E+01
 Side 1  free  transition at x/c =  0.7864   68
 Side 2  free  transition at x/c =  0.8229   68
 idif Ue xi dudx           1  0.21455280      2.98476219E-03   71.882713    
 Uenew xinew           2  7.76273608E-02  1.07991695E-03

   6   rms: 0.2822E+00   max: 0.1947E+01   D at   82  1   RLX: 0.770
       a =  0.550      CL =  0.2537
      Cm = -0.0648     CD =  0.01963   =>   CDf =  0.00720    CDp =  0.01242

 Side 1  free  transition at x/c =  0.7580   65
 Side 2  free  transition at x/c =  0.8232   69
 idif Ue xi dudx           1  0.14639896      2.08115578E-03   70.345032    
 Uenew xinew           2  6.56606676E-03  9.33408737E-05

   7   rms: 0.9375E-01   max: 0.8843E+00   T at   65  1
       a =  0.550      CL =  0.1677
      Cm = -0.0502     CD =  0.02945   =>   CDf =  0.00706    CDp =  0.02239

 Side 1  free  transition at x/c =  0.7320   63
 Side 2  free  transition at x/c =  0.8237   70

   8   rms: 0.1821E+00   max: -.2152E+01   T at    2  2   RLX: 0.232
       a =  0.550      CL =  0.1857
      Cm = -0.0497     CD =  0.03245   =>   CDf =  0.00684    CDp =  0.02561

 Side 1  free  transition at x/c =  0.7376   64
 Side 2  free  transition at x/c =  0.8238   69

   9   rms: 0.6022E+00   max: -.4075E+01   D at    2  1   RLX: 0.123
       a =  0.550      CL =  0.2448
      Cm = -0.0565     CD =  0.03071   =>   CDf =  0.00692    CDp =  0.02379

 Side 1  free  transition at x/c =  0.7559   65
 Side 2  free  transition at x/c =  0.8238   69

  10   rms: 0.5799E-01   max: -.1712E+00   D at   88  2
       a =  0.550      CL =  0.3015
      Cm = -0.0668     CD =  0.02465   =>   CDf =  0.00701    CDp =  0.01764
 VISCAL:  Convergence failed

.OPERva   c>  
.OPERva   c>  
.OPERva   c>   Calculating wake trajectory ...
 Calculating source influence matrix ...

 Solving BL system ...

 Side 1  free  transition at x/c =  0.7636   66
 Side 2  free  transition at x/c =  0.8223   69

   1   rms: 0.3491E-01   max: -.1048E+00   D at   88  2
       a =  0.600      CL =  0.3311
      Cm = -0.0707     CD =  0.02437   =>   CDf =  0.00703    CDp =  0.01734

 Side 1  free  transition at x/c =  0.7663   67
 Side 2  free  transition at x/c =  0.8234   68

   2   rms: 0.2213E-02   max: 0.2031E-01   D at    3  1
       a =  0.600      CL =  0.3297
      Cm = -0.0704     CD =  0.02441   =>   CDf =  0.00710    CDp =  0.01731

 Side 1  free  transition at x/c =  0.7665   67
 Side 2  free  transition at x/c =  0.8233   68

   3   rms: 0.6810E-03   max: 0.8933E-02   D at    4  1
       a =  0.600      CL =  0.3297
      Cm = -0.0704     CD =  0.02441   =>   CDf =  0.00710    CDp =  0.01731

 Side 1  free  transition at x/c =  0.7665   67
 Side 2  free  transition at x/c =  0.8233   68

   4   rms: 0.1557E-05   max: 0.1307E-04   D at    6  1
       a =  0.600      CL =  0.3297
      Cm = -0.0704     CD =  0.02441   =>   CDf =  0.00710    CDp =  0.01731
 plradd ia,ip,cpol            8          81  0.25820407    

 Point added to stored polar  1
 Save file unspecified or not available
 Dump file unspecified or not available

.OPERva   c>  
.OPERva   c>  
.OPERva   c>   Calculating wake trajectory ...
 Calculating source influence matrix ...

 Solving BL system ...

 Side 1  free  transition at x/c =  0.7665   67
 Side 2  free  transition at x/c =  0.8233   68

   1   rms: 0.1192E-01   max: 0.8073E-01   D at    3  1
       a =  0.650      CL =  0.3379
      Cm = -0.0707     CD =  0.02430   =>   CDf =  0.00710    CDp =  0.01719

 Side 1  free  transition at x/c =  0.7657   67
 Side 2  free  transition at x/c =  0.8248   68

   2   rms: 0.4448E-03   max: -.1976E-02   D at    3  1
       a =  0.650      CL =  0.3381
      Cm = -0.0707     CD =  0.02430   =>   CDf =  0.00711    CDp =  0.01719

 Side 1  free  transition at x/c =  0.7658   67
 Side 2  free  transition at x/c =  0.8248   68

   3   rms: 0.8460E-05   max: 0.6118E-04   D at   71  2
       a =  0.650      CL =  0.3381
      Cm = -0.0708     CD =  0.02430   =>   CDf =  0.00711    CDp =  0.01719
 plradd ia,ip,cpol            9          81  0.25820407    

 Point added to stored polar  1
 Save file unspecified or not available
 Dump file unspecified or not available

.OPERva   c>  
.OPERva   c>  
.OPERva   c>   Calculating wake trajectory ...
 Calculating source influence matrix ...

 Solving BL system ...

 Side 1  free  transition at x/c =  0.7658   67
 Side 2  free  transition at x/c =  0.8248   68

   1   rms: 0.1171E-01   max: -.6225E-01   D at    3  2
       a =  0.700      CL =  0.3465
      Cm = -0.0711     CD =  0.02419   =>   CDf =  0.00711    CDp =  0.01708

 Side 1  free  transition at x/c =  0.7651   67
 Side 2  free  transition at x/c =  0.8263   68

   2   rms: 0.2749E-03   max: -.1829E-02   D at   70  2
       a =  0.700      CL =  0.3465
      Cm = -0.0711     CD =  0.02421   =>   CDf =  0.00712    CDp =  0.01708

 Side 1  free  transition at x/c =  0.7651   67
 Side 2  free  transition at x/c =  0.8263   68

   3   rms: 0.3441E-05   max: -.2541E-04   D at   79  2
       a =  0.700      CL =  0.3465
      Cm = -0.0711     CD =  0.02420   =>   CDf =  0.00712    CDp =  0.01708
 plradd ia,ip,cpol           10          81  0.25820407    

 Point added to stored polar  1
 Save file unspecified or not available
 Dump file unspecified or not available

.OPERva   c>  
.OPERva   c>  
.OPERva   c>   Calculating wake trajectory ...
 Calculating source influence matrix ...

 Solving BL system ...

 Side 1  free  transition at x/c =  0.7651   67
 Side 2  free  transition at x/c =  0.8263   68

   1   rms: 0.1020E-01   max: -.3000E-01   T at   68  2
       a =  0.750      CL =  0.3551
      Cm = -0.0716     CD =  0.02409   =>   CDf =  0.00712    CDp =  0.01697

 Side 1  free  transition at x/c =  0.7645   67
 Side 2  free  transition at x/c =  0.8279   68

   2   rms: 0.3079E-03   max: -.1552E-02   D at   71  2
       a =  0.750      CL =  0.3553
      Cm = -0.0716     CD =  0.02410   =>   CDf =  0.00714    CDp =  0.01696

 Side 1  free  transition at x/c =  0.7645   67
 Side 2  free  transition at x/c =  0.8279   68

   3   rms: 0.4026E-05   max: 0.3169E-04   D at   71  2
       a =  0.750      CL =  0.3553
      Cm = -0.0716     CD =  0.02410   =>   CDf =  0.00714    CDp =  0.01696
 plradd ia,ip,cpol           11          81  0.25820407    

 Point added to stored polar  1
 Save file unspecified or not available
 Dump file unspecified or not available

.OPERva   c>  
.OPERva   c>  
.OPERva   c>   Calculating wake trajectory ...
 Calculating source influence matrix ...

 Solving BL system ...

 Side 1  free  transition at x/c =  0.7645   67
 Side 2  free  transition at x/c =  0.8279   68

   1   rms: 0.1085E-01   max: -.3209E-01   T at   68  2
       a =  0.800      CL =  0.3642
      Cm = -0.0721     CD =  0.02398   =>   CDf =  0.00714    CDp =  0.01685

 Side 1  free  transition at x/c =  0.7639   67
 Side 2  free  transition at x/c =  0.8295   68

   2   rms: 0.3305E-03   max: -.2044E-02   D at   71  2
       a =  0.800      CL =  0.3644
      Cm = -0.0722     CD =  0.02399   =>   CDf =  0.00715    CDp =  0.01684

 Side 1  free  transition at x/c =  0.7639   67
 Side 2  free  transition at x/c =  0.8295   68

   3   rms: 0.3724E-05   max: 0.2524E-04   D at   71  2
       a =  0.800      CL =  0.3644
      Cm = -0.0722     CD =  0.02399   =>   CDf =  0.00715    CDp =  0.01684
 plradd ia,ip,cpol           12          81  0.25820407    

 Point added to stored polar  1
 Save file unspecified or not available
 Dump file unspecified or not available

.OPERva   c>  
.OPERva   c>  
.OPERva   c>   Calculating wake trajectory ...
 Calculating source influence matrix ...

 Solving BL system ...

 Side 1  free  transition at x/c =  0.7639   67
 Side 2  free  transition at x/c =  0.8295   68

   1   rms: 0.1127E-01   max: -.3352E-01   T at   68  2
       a =  0.850      CL =  0.3739
      Cm = -0.0728     CD =  0.02387   =>   CDf =  0.00715    CDp =  0.01671

 Side 1  free  transition at x/c =  0.7633   67
 Side 2  free  transition at x/c =  0.8311   68

   2   rms: 0.3640E-03   max: -.2649E-02   D at   71  2
       a =  0.850      CL =  0.3741
      Cm = -0.0729     CD =  0.02387   =>   CDf =  0.00717    CDp =  0.01670

 Side 1  free  transition at x/c =  0.7633   67
 Side 2  free  transition at x/c =  0.8311   68

   3   rms: 0.3934E-05   max: 0.3052E-04   D at   71  2
       a =  0.850      CL =  0.3741
      Cm = -0.0729     CD =  0.02387   =>   CDf =  0.00717    CDp =  0.01670
 plradd ia,ip,cpol           13          81  0.25820407    

 Point added to stored polar  1
 Save file unspecified or not available
 Dump file unspecified or not available

.OPERva   c>  
.OPERva   c>  
.OPERva   c>   Calculating wake trajectory ...
 Calculating source influence matrix ...

 Solving BL system ...

 Side 1  free  transition at x/c =  0.7633   67
 Side 2  free  transition at x/c =  0.8311   68

   1   rms: 0.1165E-01   max: -.3435E-01   T at   68  2
       a =  0.900      CL =  0.3838
      Cm = -0.0736     CD =  0.02376   =>   CDf =  0.00717    CDp =  0.01659

 Side 1  free  transition at x/c =  0.7628   67
 Side 2  free  transition at x/c =  0.8327   68

   2   rms: 0.3611E-03   max: -.2687E-02   D at   71  2
       a =  0.900      CL =  0.3840
      Cm = -0.0736     CD =  0.02377   =>   CDf =  0.00719    CDp =  0.01658

 Side 1  free  transition at x/c =  0.7628   67
 Side 2  free  transition at x/c =  0.8327   68

   3   rms: 0.3705E-05   max: -.2375E-04   T at   67  1
       a =  0.900      CL =  0.3840
      Cm = -0.0736     CD =  0.02376   =>   CDf =  0.00719    CDp =  0.01658
 plradd ia,ip,cpol           14          81  0.25820407    

 Point added to stored polar  1
 Save file unspecified or not available
 Dump file unspecified or not available

.OPERva   c>  
.OPERva   c>  
.OPERva   c>   Calculating wake trajectory ...
 Calculating source influence matrix ...

 Solving BL system ...

 Side 1  free  transition at x/c =  0.7628   67
 Side 2  free  transition at x/c =  0.8327   68

   1   rms: 0.1162E-01   max: -.3851E-01   T at   68  2
       a =  0.950      CL =  0.3943
      Cm = -0.0745     CD =  0.02365   =>   CDf =  0.00719    CDp =  0.01646

 Side 1  free  transition at x/c =  0.7623   67
 Side 2  free  transition at x/c =  0.8344   69

   2   rms: 0.1949E-02   max: -.3682E-01   D at   68  2
       a =  0.950      CL =  0.3936
      Cm = -0.0743     CD =  0.02365   =>   CDf =  0.00721    CDp =  0.01644

 Side 1  free  transition at x/c =  0.7623   67
 Side 2  free  transition at x/c =  0.8341   69

   3   rms: 0.1235E-03   max: 0.1244E-02   D at   71  2
       a =  0.950      CL =  0.3936
      Cm = -0.0743     CD =  0.02365   =>   CDf =  0.00720    CDp =  0.01644

 Side 1  free  transition at x/c =  0.7623   67
 Side 2  free  transition at x/c =  0.8341   69

   4   rms: 0.1640E-05   max: 0.1044E-04   D at   79  1
       a =  0.950      CL =  0.3936
      Cm = -0.0743     CD =  0.02365   =>   CDf =  0.00720    CDp =  0.01645
 plradd ia,ip,cpol           15          81  0.25820407    

 Point added to stored polar  1
 Save file unspecified or not available
 Dump file unspecified or not available

.OPERva   c>  
.OPERva   c>  
.OPERva   c>   Calculating wake trajectory ...
 Calculating source influence matrix ...

 Solving BL system ...

 Side 1  free  transition at x/c =  0.7623   67
 Side 2  free  transition at x/c =  0.8341   69

   1   rms: 0.1060E-01   max: -.3314E-01   T at   69  2
       a =  1.000      CL =  0.4017
      Cm = -0.0745     CD =  0.02352   =>   CDf =  0.00720    CDp =  0.01632

 Side 1  free  transition at x/c =  0.7618   66
 Side 2  free  transition at x/c =  0.8352   69

   2   rms: 0.5585E-02   max: -.3039E-01   T at   66  1
       a =  1.000      CL =  0.4066
      Cm = -0.0752     CD =  0.02340   =>   CDf =  0.00721    CDp =  0.01619

 Side 1  free  transition at x/c =  0.7631   67
 Side 2  free  transition at x/c =  0.8351   69

   3   rms: 0.1141E-01   max: 0.5581E-01   D at   70  1
       a =  1.000      CL =  0.4018
      Cm = -0.0745     CD =  0.02354   =>   CDf =  0.00721    CDp =  0.01633

 Side 1  free  transition at x/c =  0.7618   66
 Side 2  free  transition at x/c =  0.8352   69

   4   rms: 0.5756E-02   max: -.3126E-01   T at   66  1
       a =  1.000      CL =  0.4067
      Cm = -0.0752     CD =  0.02340   =>   CDf =  0.00721    CDp =  0.01619

 Side 1  free  transition at x/c =  0.7631   67
 Side 2  free  transition at x/c =  0.8351   69

   5   rms: 0.1147E-01   max: 0.5607E-01   D at   70  1
       a =  1.000      CL =  0.4018
      Cm = -0.0745     CD =  0.02354   =>   CDf =  0.00721    CDp =  0.01633

 Side 1  free  transition at x/c =  0.7618   66
 Side 2  free  transition at x/c =  0.8352   69

   6   rms: 0.5755E-02   max: -.3126E-01   T at   66  1
       a =  1.000      CL =  0.4067
      Cm = -0.0752     CD =  0.02340   =>   CDf =  0.00721    CDp =  0.01619

 Side 1  free  transition at x/c =  0.7631   67
 Side 2  free  transition at x/c =  0.8351   69

   7   rms: 0.1146E-01   max: 0.5604E-01   D at   70  1
       a =  1.000      CL =  0.4018
      Cm = -0.0745     CD =  0.02354   =>   CDf =  0.00721    CDp =  0.01633

 Side 1  free  transition at x/c =  0.7618   66
 Side 2  free  transition at x/c =  0.8352   69

   8   rms: 0.5758E-02   max: -.3126E-01   T at   66  1
       a =  1.000      CL =  0.4067
      Cm = -0.0752     CD =  0.02340   =>   CDf =  0.00721    CDp =  0.01619

 Side 1  free  transition at x/c =  0.7631   67
 Side 2  free  transition at x/c =  0.8351   69

   9   rms: 0.1147E-01   max: 0.5607E-01   D at   70  1
       a =  1.000      CL =  0.4018
      Cm = -0.0745     CD =  0.02354   =>   CDf =  0.00721    CDp =  0.01633

 Side 1  free  transition at x/c =  0.7618   66
 Side 2  free  transition at x/c =  0.8352   69

  10   rms: 0.5756E-02   max: -.3126E-01   T at   66  1
       a =  1.000      CL =  0.4067
      Cm = -0.0752     CD =  0.02340   =>   CDf =  0.00721    CDp =  0.01619
 VISCAL:  Convergence failed

.OPERva   c>  
.OPERva   c>  
.OPERva   c>   Calculating wake trajectory ...
 Calculating source influence matrix ...

 Solving BL system ...

 Side 1  free  transition at x/c =  0.7631   67
 Side 2  free  transition at x/c =  0.8351   69

   1   rms: 0.1311E-01   max: -.9218E-01   T at    3  2
       a =  1.050      CL =  0.4101
      Cm = -0.0748     CD =  0.02342   =>   CDf =  0.00715    CDp =  0.01627

 Side 1  free  transition at x/c =  0.7614   67
 Side 2  free  transition at x/c =  0.8363   68

   2   rms: 0.3024E-01   max: -.3181E+00   T at    2  1
       a =  1.050      CL =  0.4304
      Cm = -0.0778     CD =  0.02286   =>   CDf =  0.00721    CDp =  0.01564

 Side 1  free  transition at x/c =  0.7670   68
 Side 2  free  transition at x/c =  0.8359   68

   3   rms: 0.4671E-01   max: 0.2427E+00   D at   70  1
       a =  1.050      CL =  0.4089
      Cm = -0.0747     CD =  0.02340   =>   CDf =  0.00723    CDp =  0.01617

 Side 1  free  transition at x/c =  0.7610   67
 Side 2  free  transition at x/c =  0.8363   68

   4   rms: 0.2792E-01   max: -.1409E+00   T at   67  1
       a =  1.050      CL =  0.4316
      Cm = -0.0780     CD =  0.02283   =>   CDf =  0.00721    CDp =  0.01562

 Side 1  free  transition at x/c =  0.7674   68
 Side 2  free  transition at x/c =  0.8359   68

   5   rms: 0.4921E-01   max: 0.2545E+00   D at   70  1
       a =  1.050      CL =  0.4088
      Cm = -0.0747     CD =  0.02340   =>   CDf =  0.00723    CDp =  0.01617

 Side 1  free  transition at x/c =  0.7610   67
 Side 2  free  transition at x/c =  0.8363   68

   6   rms: 0.2837E-01   max: -.1424E+00   T at   67  1
       a =  1.050      CL =  0.4317
      Cm = -0.0780     CD =  0.02283   =>   CDf =  0.00721    CDp =  0.01562

 Side 1  free  transition at x/c =  0.7674   68
 Side 2  free  transition at x/c =  0.8359   68

   7   rms: 0.4948E-01   max: 0.2558E+00   D at   70  1
       a =  1.050      CL =  0.4087
      Cm = -0.0747     CD =  0.02340   =>   CDf =  0.00723    CDp =  0.01616

 Side 1  free  transition at x/c =  0.7610   67
 Side 2  free  transition at x/c =  0.8363   68

   8   rms: 0.2838E-01   max: -.1423E+00   T at   67  1
       a =  1.050      CL =  0.4317
      Cm = -0.0780     CD =  0.02283   =>   CDf =  0.00721    CDp =  0.01562

 Side 1  free  transition at x/c =  0.7674   68
 Side 2  free  transition at x/c =  0.8359   68

   9   rms: 0.4947E-01   max: 0.2557E+00   D at   70  1
       a =  1.050      CL =  0.4087
      Cm = -0.0747     CD =  0.02340   =>   CDf =  0.00723    CDp =  0.01617

 Side 1  free  transition at x/c =  0.7610   67
 Side 2  free  transition at x/c =  0.8363   68

  10   rms: 0.2842E-01   max: -.1425E+00   T at   67  1
       a =  1.050      CL =  0.4317
      Cm = -0.0780     CD =  0.02283   =>   CDf =  0.00721    CDp =  0.01562
 VISCAL:  Convergence failed

.OPERva   c>  
.OPERva   c>  
.OPERva   c>   Calculating wake trajectory ...
 Calculating source influence matrix ...

 Solving BL system ...

 Side 1  free  transition at x/c =  0.7674   68
 Side 2  free  transition at x/c =  0.8359   68

   1   rms: 0.4609E-01   max: 0.2414E+00   D at   70  1
       a =  1.100      CL =  0.4167
      Cm = -0.0749     CD =  0.02329   =>   CDf =  0.00723    CDp =  0.01605

 Side 1  free  transition at x/c =  0.7603   67
 Side 2  free  transition at x/c =  0.8375   68

   2   rms: 0.5900E-01   max: -.2965E+00   T at   67  1
       a =  1.100      CL =  0.4652
      Cm = -0.0820     CD =  0.02204   =>   CDf =  0.00721    CDp =  0.01483

 MRCHDU: Convergence failed at  83  side 1    Res =  0.5542E+02
 Side 1  free  transition at x/c =  0.7751   68
 Side 2  free  transition at x/c =  0.8365   68

   3   rms: 0.9531E-01   max: 0.5425E+00   D at   70  1
       a =  1.100      CL =  0.4277
      Cm = -0.0767     CD =  0.02258   =>   CDf =  0.00725    CDp =  0.01533

 Side 1  free  transition at x/c =  0.7624   68
 Side 2  free  transition at x/c =  0.8374   68

   4   rms: 0.1327E-01   max: 0.7197E-01   T at   68  1
       a =  1.100      CL =  0.4189
      Cm = -0.0752     CD =  0.02332   =>   CDf =  0.00721    CDp =  0.01611

 Side 1  free  transition at x/c =  0.7609   67
 Side 2  free  transition at x/c =  0.8375   68

   5   rms: 0.4956E-01   max: -.2591E+00   T at   67  1
       a =  1.100      CL =  0.4607
      Cm = -0.0814     CD =  0.02214   =>   CDf =  0.00722    CDp =  0.01492

 Side 1  free  transition at x/c =  0.7736   68
 Side 2  free  transition at x/c =  0.8366   68

   6   rms: 0.8782E-01   max: 0.5052E+00   D at   70  1
       a =  1.100      CL =  0.4242
      Cm = -0.0762     CD =  0.02286   =>   CDf =  0.00725    CDp =  0.01562

 Side 1  free  transition at x/c =  0.7615   67
 Side 2  free  transition at x/c =  0.8375   68

   7   rms: 0.3903E-01   max: -.2153E+00   D at   79  1
       a =  1.100      CL =  0.4519
      Cm = -0.0801     CD =  0.02246   =>   CDf =  0.00721    CDp =  0.01525

 Side 1  free  transition at x/c =  0.7702   68
 Side 2  free  transition at x/c =  0.8368   68

   8   rms: 0.7154E-01   max: 0.3892E+00   D at   70  1
       a =  1.100      CL =  0.4192
      Cm = -0.0754     CD =  0.02311   =>   CDf =  0.00724    CDp =  0.01587

 Side 1  free  transition at x/c =  0.7607   67
 Side 2  free  transition at x/c =  0.8376   68

   9   rms: 0.5097E-01   max: -.2519E+00   T at   67  1
       a =  1.100      CL =  0.4597
      Cm = -0.0812     CD =  0.02222   =>   CDf =  0.00721    CDp =  0.01501

 Side 1  free  transition at x/c =  0.7730   68
 Side 2  free  transition at x/c =  0.8367   68

  10   rms: 0.8588E-01   max: 0.4861E+00   D at   70  1
       a =  1.100      CL =  0.4227
      Cm = -0.0760     CD =  0.02292   =>   CDf =  0.00725    CDp =  0.01567
 VISCAL:  Convergence failed

.OPERva   c>  
.OPERva   c>  
.OPERva   c>   Calculating wake trajectory ...
 Calculating source influence matrix ...

 Solving BL system ...

 Side 1  free  transition at x/c =  0.7613   67
 Side 2  free  transition at x/c =  0.8375   68

   1   rms: 0.6682E-01   max: -.3122E+00   D at   78  1
       a =  1.150      CL =  0.4770
      Cm = -0.0829     CD =  0.02190   =>   CDf =  0.00721    CDp =  0.01469

 MRCHDU: Convergence failed at  82  side 1    Res =  0.3482E+01
 MRCHDU: Convergence failed at  83  side 1    Res =  0.6614E+01
 Side 1  free  transition at x/c =  0.7752   68
 Side 2  free  transition at x/c =  0.8378   68

   2   rms: 0.1011E+00   max: 0.5606E+00   D at   70  1
       a =  1.150      CL =  0.4397
      Cm = -0.0775     CD =  0.02207   =>   CDf =  0.00725    CDp =  0.01482

 Side 1  free  transition at x/c =  0.7630   68
 Side 2  free  transition at x/c =  0.8387   68

   3   rms: 0.1997E-01   max: 0.1121E+00   T at   68  1
       a =  1.150      CL =  0.4271
      Cm = -0.0756     CD =  0.02320   =>   CDf =  0.00721    CDp =  0.01599

 Side 1  free  transition at x/c =  0.7603   67
 Side 2  free  transition at x/c =  0.8388   68

   4   rms: 0.9075E-01   max: -.4591E+00   T at   67  1
       a =  1.150      CL =  0.5031
      Cm = -0.0867     CD =  0.02110   =>   CDf =  0.00722    CDp =  0.01387

 MRCHDU: Convergence failed at  81  side 1    Res =  0.9931E+00
 MRCHDU: Convergence failed at  82  side 1    Res =  0.1333E+01
 MRCHDU: Convergence failed at  83  side 1    Res =  0.1872E+01
 Side 1  free  transition at x/c =  0.7845   69
 Side 2  free  transition at x/c =  0.8371   68

   5   rms: 0.9852E-01   max: 0.6632E+00   D at   69  1
       a =  1.150      CL =  0.4796
      Cm = -0.0829     CD =  0.02038   =>   CDf =  0.00728    CDp =  0.01310

 MRCHDU: Convergence failed at  83  side 1    Res =  0.1023E+01
 Side 1  free  transition at x/c =  0.7757   68
 Side 2  free  transition at x/c =  0.8375   68

   6   rms: 0.1419E+01   max: -.6625E+01   T at   68  1   RLX: 0.075
       a =  1.150      CL =  0.5778
      Cm = -0.1025     CD =  0.01764   =>   CDf =  0.00717    CDp =  0.01048

 MRCHDU: Convergence failed at  71  side 1    Res =  0.1051E+02
 MRCHDU: Convergence failed at  72  side 1    Res =  0.1558E+02
 MRCHDU: Convergence failed at  73  side 1    Res =  0.1291E+02
 MRCHDU: Convergence failed at  74  side 1    Res =  0.7791E+01
 MRCHDU: Convergence failed at  75  side 1    Res =  0.6848E+01
 MRCHDU: Convergence failed at  76  side 1    Res =  0.9394E+01
 MRCHDU: Convergence failed at  77  side 1    Res =  0.1160E+02
 MRCHDU: Convergence failed at  78  side 1    Res =  0.1250E+02
 MRCHDU: Convergence failed at  79  side 1    Res =  0.1143E+02
 MRCHDU: Convergence failed at  80  side 1    Res =  0.8497E+01
 MRCHDU: Convergence failed at  81  side 1    Res =  0.1266E+02
 MRCHDU: Convergence failed at  82  side 1    Res =  0.1106E+02
 MRCHDU: Convergence failed at  83  side 1    Res =  0.1564E+02
 MRCHDU: Convergence failed at  84  side 1    Res =  0.1587E+02
 Side 1  free  transition at x/c =  0.8070   71
 Side 2  free  transition at x/c =  0.8352   67
 idif Ue xi dudx           2  0.30792823      3.82208824E-03   80.565445    
 Uenew xinew           3  0.15784420      1.95920467E-03

   7   rms: 0.4781E+00   max: 0.2013E+01   C at   71  1   RLX: 0.592
       a =  1.150      CL =  0.4400
      Cm = -0.0997     CD =  0.01197   =>   CDf =  0.00737    CDp =  0.00460

 Side 1  free  transition at x/c =  0.7599   66
 Side 2  free  transition at x/c =  0.8425   69

   8   rms: 0.3731E+00   max: 0.2851E+01   T at   66  1   RLX: 0.296
       a =  1.150      CL =  0.3195
      Cm = -0.0730     CD =  0.02538   =>   CDf =  0.00711    CDp =  0.01826

 Side 1  free  transition at x/c =  0.7336   65
 Side 2  free  transition at x/c =  0.8464   69

   9   rms: 0.8431E-01   max: -.4995E+00   D at   68  1
       a =  1.150      CL =  0.2924
      Cm = -0.0564     CD =  0.02850   =>   CDf =  0.00705    CDp =  0.02145

 Side 1  free  transition at x/c =  0.7318   65
 Side 2  free  transition at x/c =  0.8434   69

  10   rms: 0.7122E-01   max: -.2756E+00   T at   65  1
       a =  1.150      CL =  0.3401
      Cm = -0.0629     CD =  0.02493   =>   CDf =  0.00705    CDp =  0.01789
 VISCAL:  Convergence failed

.OPERva   c>  
.OPERva   c>  
.OPERva   c>   Calculating wake trajectory ...
 Calculating source influence matrix ...

 Solving BL system ...

 Side 1  free  transition at x/c =  0.7407   65
 Side 2  free  transition at x/c =  0.8415   69
 idif Ue xi dudx           1  0.18610415      2.52032280E-03   73.841393    
 Uenew xinew           2  4.54477221E-02  6.15477562E-04

   1   rms: 0.1521E+00   max: 0.9525E+00   T at   65  1   RLX: 0.927
       a =  1.200      CL =  0.2055
      Cm = -0.0436     CD =  0.02934   =>   CDf =  0.00717    CDp =  0.02217

 Side 1  free  transition at x/c =  0.7141   63
 Side 2  free  transition at x/c =  0.8463   70

   2   rms: 0.1592E+00   max: -.6768E+00   T at   63  1   RLX: 0.739
       a =  1.200      CL =  0.2985
      Cm = -0.0558     CD =  0.02797   =>   CDf =  0.00690    CDp =  0.02107

 Side 1  free  transition at x/c =  0.7316   65
 Side 2  free  transition at x/c =  0.8455   69

   3   rms: 0.7975E-01   max: -.3140E+00   D at   89  2
       a =  1.200      CL =  0.3519
      Cm = -0.0637     CD =  0.02466   =>   CDf =  0.00706    CDp =  0.01760

 Side 1  free  transition at x/c =  0.7410   65
 Side 2  free  transition at x/c =  0.8433   69
 idif Ue xi dudx           1  0.18778960      2.54333019E-03   73.836105    
 Uenew xinew           2  4.71432433E-02  6.38484955E-04

   4   rms: 0.1533E+00   max: 0.8787E+00   T at   65  1
       a =  1.200      CL =  0.2031
      Cm = -0.0428     CD =  0.02914   =>   CDf =  0.00719    CDp =  0.02196

 Side 1  free  transition at x/c =  0.7145   63
 Side 2  free  transition at x/c =  0.8465   70

   5   rms: 0.1680E+00   max: -.7173E+00   T at   63  1   RLX: 0.697
       a =  1.200      CL =  0.2979
      Cm = -0.0554     CD =  0.02812   =>   CDf =  0.00690    CDp =  0.02122

 Side 1  free  transition at x/c =  0.7324   65
 Side 2  free  transition at x/c =  0.8456   69

   6   rms: 0.8082E-01   max: -.3167E+00   D at   89  2
       a =  1.200      CL =  0.3550
      Cm = -0.0641     CD =  0.02450   =>   CDf =  0.00706    CDp =  0.01744

 Side 1  free  transition at x/c =  0.7418   65
 Side 2  free  transition at x/c =  0.8431   69

   7   rms: 0.1006E+00   max: 0.6003E+00   T at   65  1
       a =  1.200      CL =  0.2561
      Cm = -0.0502     CD =  0.02768   =>   CDf =  0.00711    CDp =  0.02056

 Side 1  free  transition at x/c =  0.7226   64
 Side 2  free  transition at x/c =  0.8450   69
 idif Ue xi dudx           2  0.28461975      4.03904915E-03   70.467018    
 Uenew xinew           3  0.15039098      2.13420391E-03

   8   rms: 0.3439E+01   max: 0.2353E+02   T at   64  1   RLX: 0.049
       a =  1.200      CL =  0.1070
      Cm = -0.0317     CD =  0.03843   =>   CDf =  0.00715    CDp =  0.03128

 Side 1  free  transition at x/c =  0.6940   60
 Side 2  free  transition at x/c =  0.8475   71

   9   rms: 0.4404E+01   max: -.3402E+02   T at    2  2   RLX: 0.015
       a =  1.200      CL =  0.1471
      Cm = -0.0301     CD =  0.04402   =>   CDf =  0.00679    CDp =  0.03723

 Side 1  free  transition at x/c =  0.7085   62
 Side 2  free  transition at x/c =  0.8479   70
 idif Ue xi dudx           1  0.16385862      2.44212151E-03   67.096832    
 Uenew xinew           2  3.04825343E-02  4.54306602E-04

  10   rms: 0.2730E+00   max: 0.2704E+01   T at   62  1   RLX: 0.312
       a =  1.200      CL =  0.0844
      Cm = -0.0259     CD =  0.04066   =>   CDf =  0.00700    CDp =  0.03366
 VISCAL:  Convergence failed

.OPERva   c>  
.OPERva   c>  
.OPERva   c>   Calculating wake trajectory ...
 Calculating source influence matrix ...

 Solving BL system ...

 Side 1  free  transition at x/c =  0.6893   60
 Side 2  free  transition at x/c =  0.8470   71

   1   rms: 0.4523E+00   max: -.2795E+01   T at   60  1   RLX: 0.179
       a =  1.250      CL =  0.1507
      Cm = -0.0297     CD =  0.04193   =>   CDf =  0.00675    CDp =  0.03518

 Side 1  free  transition at x/c =  0.7064   62
 Side 2  free  transition at x/c =  0.8480   70

   2   rms: 0.1996E+00   max: -.7691E+00   T at   62  1   RLX: 0.650
       a =  1.250      CL =  0.2718
      Cm = -0.0492     CD =  0.02900   =>   CDf =  0.00687    CDp =  0.02213

 Side 1  free  transition at x/c =  0.7286   64
 Side 2  free  transition at x/c =  0.8478   69

   3   rms: 0.6022E-01   max: 0.6280E+00   T at   64  1
       a =  1.250      CL =  0.2461
      Cm = -0.0514     CD =  0.02998   =>   CDf =  0.00706    CDp =  0.02293

 Side 1  free  transition at x/c =  0.7101   63
 Side 2  free  transition at x/c =  0.8470   69
 idif Ue xi dudx           1  0.24647170      3.36933136E-03   73.151520    
 Uenew xinew           2  0.10712939      1.46448612E-03

   4   rms: 0.3129E+00   max: 0.2531E+01   T at   63  1   RLX: 0.339
       a =  1.250      CL =  0.1485
      Cm = -0.0382     CD =  0.03590   =>   CDf =  0.00704    CDp =  0.02886

 Side 1  free  transition at x/c =  0.6896   61
 Side 2  free  transition at x/c =  0.8490   70

   5   rms: 0.3461E+00   max: -.2351E+01   T at   61  1   RLX: 0.213
       a =  1.250      CL =  0.2032
      Cm = -0.0401     CD =  0.03921   =>   CDf =  0.00687    CDp =  0.03234

 Side 1  free  transition at x/c =  0.7069   62
 Side 2  free  transition at x/c =  0.8487   70

   6   rms: 0.1326E+00   max: -.5627E+00   T at   62  1   RLX: 0.889
       a =  1.250      CL =  0.3024
      Cm = -0.0561     CD =  0.02769   =>   CDf =  0.00689    CDp =  0.02079

 Side 1  free  transition at x/c =  0.7290   65
 Side 2  free  transition at x/c =  0.8472   69

   7   rms: 0.7487E-01   max: -.3055E+00   T at   65  1
       a =  1.250      CL =  0.3491
      Cm = -0.0627     CD =  0.02496   =>   CDf =  0.00706    CDp =  0.01790

 Side 1  free  transition at x/c =  0.7369   65
 Side 2  free  transition at x/c =  0.8449   69

   8   rms: 0.1155E+00   max: -.5299E+00   T at   65  1   RLX: 0.944
       a =  1.250      CL =  0.4386
      Cm = -0.0753     CD =  0.02312   =>   CDf =  0.00702    CDp =  0.01610

 Side 1  free  transition at x/c =  0.7605   67
 Side 2  free  transition at x/c =  0.8421   68
 idif Ue xi dudx           1  0.15993500      2.10261345E-03   76.064857    
 Uenew xinew           2  1.88969560E-02  2.48432159E-04

   9   rms: 0.1061E+00   max: 0.4615E+00   D at   71  1
       a =  1.250      CL =  0.3734
      Cm = -0.0662     CD =  0.02504   =>   CDf =  0.00732    CDp =  0.01772

 Side 1  free  transition at x/c =  0.7428   65
 Side 2  free  transition at x/c =  0.8437   69

  10   rms: 0.6197E-01   max: 0.4007E+00   T at   65  1
       a =  1.250      CL =  0.3156
      Cm = -0.0582     CD =  0.02646   =>   CDf =  0.00713    CDp =  0.01932
 VISCAL:  Convergence failed

.OPERva   c>  
.OPERva   c>  
.OPERva   c>   Calculating wake trajectory ...
 Calculating source influence matrix ...

 Solving BL system ...

 Side 1  free  transition at x/c =  0.7290   65
 Side 2  free  transition at x/c =  0.8453   69

   1   rms: 0.7203E-01   max: -.2804E+00   D at   70  1
       a =  1.300      CL =  0.3564
      Cm = -0.0630     CD =  0.02513   =>   CDf =  0.00705    CDp =  0.01808

 Side 1  free  transition at x/c =  0.7358   65
 Side 2  free  transition at x/c =  0.8465   69

   2   rms: 0.7611E-01   max: -.3259E+00   T at   65  1
       a =  1.300      CL =  0.4162
      Cm = -0.0716     CD =  0.02377   =>   CDf =  0.00703    CDp =  0.01675

 Side 1  free  transition at x/c =  0.7496   67
 Side 2  free  transition at x/c =  0.8445   68

   3   rms: 0.9731E-02   max: 0.5639E-01   D at   83  1
       a =  1.300      CL =  0.4145
      Cm = -0.0713     CD =  0.02385   =>   CDf =  0.00719    CDp =  0.01666

 Side 1  free  transition at x/c =  0.7487   67
 Side 2  free  transition at x/c =  0.8442   68

   4   rms: 0.7593E-03   max: 0.8320E-02   D at    4  1
       a =  1.300      CL =  0.4143
      Cm = -0.0712     CD =  0.02385   =>   CDf =  0.00718    CDp =  0.01666

 Side 1  free  transition at x/c =  0.7487   67
 Side 2  free  transition at x/c =  0.8443   68

   5   rms: 0.1792E-05   max: 0.8984E-05   D at   81  2
       a =  1.300      CL =  0.4143
      Cm = -0.0712     CD =  0.02384   =>   CDf =  0.00718    CDp =  0.01666
 plradd ia,ip,cpol           16          82  0.24290843    

 Point added to stored polar  1
 Save file unspecified or not available
 Dump file unspecified or not available

.OPERva   c>  
.OPERva   c>  
.OPERva   c>   Calculating wake trajectory ...
 Calculating source influence matrix ...

 Solving BL system ...

 Side 1  free  transition at x/c =  0.7487   67
 Side 2  free  transition at x/c =  0.8443   68

   1   rms: 0.1149E-01   max: -.2794E-01   T at   68  2
       a =  1.350      CL =  0.4230
      Cm = -0.0717     CD =  0.02373   =>   CDf =  0.00718    CDp =  0.01655

 Side 1  free  transition at x/c =  0.7480   67
 Side 2  free  transition at x/c =  0.8458   68

   2   rms: 0.4848E-03   max: -.1847E-02   D at   70  1
       a =  1.350      CL =  0.4232
      Cm = -0.0717     CD =  0.02374   =>   CDf =  0.00719    CDp =  0.01654

 Side 1  free  transition at x/c =  0.7480   67
 Side 2  free  transition at x/c =  0.8458   68

   3   rms: 0.8882E-05   max: 0.5624E-04   D at   71  2
       a =  1.350      CL =  0.4232
      Cm = -0.0717     CD =  0.02374   =>   CDf =  0.00719    CDp =  0.01654
 plradd ia,ip,cpol           17          82  0.24290843    

 Point added to stored polar  1
 Save file unspecified or not available
 Dump file unspecified or not available

.OPERva   c>  
.OPERva   c>  
.OPERva   c>   Calculating wake trajectory ...
 Calculating source influence matrix ...

 Solving BL system ...

 Side 1  free  transition at x/c =  0.7480   67
 Side 2  free  transition at x/c =  0.8458   68

   1   rms: 0.1123E-01   max: -.2951E-01   T at   68  2
       a =  1.400      CL =  0.4323
      Cm = -0.0723     CD =  0.02362   =>   CDf =  0.00719    CDp =  0.01643

 Side 1  free  transition at x/c =  0.7473   67
 Side 2  free  transition at x/c =  0.8473   68

   2   rms: 0.3721E-03   max: -.1922E-02   D at   71  2
       a =  1.400      CL =  0.4325
      Cm = -0.0723     CD =  0.02363   =>   CDf =  0.00721    CDp =  0.01642

 Side 1  free  transition at x/c =  0.7474   67
 Side 2  free  transition at x/c =  0.8473   68

   3   rms: 0.5276E-05   max: 0.3576E-04   D at   71  2
       a =  1.400      CL =  0.4325
      Cm = -0.0723     CD =  0.02363   =>   CDf =  0.00721    CDp =  0.01642
 plradd ia,ip,cpol           18          82  0.24290843    

 Point added to stored polar  1
 Save file unspecified or not available
 Dump file unspecified or not available

.OPERva   c>  
.OPERva   c>  
.OPERva   c>   Calculating wake trajectory ...
 Calculating source influence matrix ...

 Solving BL system ...

 Side 1  free  transition at x/c =  0.7474   67
 Side 2  free  transition at x/c =  0.8473   68

   1   rms: 0.1121E-01   max: -.2984E-01   T at   68  2
       a =  1.450      CL =  0.4420
      Cm = -0.0730     CD =  0.02351   =>   CDf =  0.00721    CDp =  0.01631

 Side 1  free  transition at x/c =  0.7468   67
 Side 2  free  transition at x/c =  0.8488   68

   2   rms: 0.3260E-03   max: -.1765E-02   D at   71  2
       a =  1.450      CL =  0.4422
      Cm = -0.0730     CD =  0.02352   =>   CDf =  0.00722    CDp =  0.01629

 Side 1  free  transition at x/c =  0.7468   67
 Side 2  free  transition at x/c =  0.8488   68

   3   rms: 0.5059E-05   max: 0.3251E-04   D at   71  2
       a =  1.450      CL =  0.4422
      Cm = -0.0730     CD =  0.02352   =>   CDf =  0.00722    CDp =  0.01629
 plradd ia,ip,cpol           19          82  0.24290843    

 Point added to stored polar  1
 Save file unspecified or not available
 Dump file unspecified or not available

.OPERva   c>  
.OPERva   c>  
.OPERva   c>   Calculating wake trajectory ...
 Calculating source influence matrix ...

 Solving BL system ...

 Side 1  free  transition at x/c =  0.7468   67
 Side 2  free  transition at x/c =  0.8488   68

   1   rms: 0.1125E-01   max: -.3028E-01   T at   68  2
       a =  1.500      CL =  0.4521
      Cm = -0.0738     CD =  0.02340   =>   CDf =  0.00722    CDp =  0.01617

 Side 1  free  transition at x/c =  0.7462   67
 Side 2  free  transition at x/c =  0.8501   69

   2   rms: 0.3310E-02   max: -.4518E-01   D at   68  2
       a =  1.500      CL =  0.4522
      Cm = -0.0738     CD =  0.02341   =>   CDf =  0.00724    CDp =  0.01616

 Side 1  free  transition at x/c =  0.7462   67
 Side 2  free  transition at x/c =  0.8502   69

   3   rms: 0.1257E-03   max: 0.1325E-02   D at   71  2
       a =  1.500      CL =  0.4521
      Cm = -0.0738     CD =  0.02340   =>   CDf =  0.00724    CDp =  0.01616

 Side 1  free  transition at x/c =  0.7462   67
 Side 2  free  transition at x/c =  0.8501   69

   4   rms: 0.1893E-05   max: -.1031E-04   D at   84  2
       a =  1.500      CL =  0.4521
      Cm = -0.0738     CD =  0.02340   =>   CDf =  0.00724    CDp =  0.01616
 plradd ia,ip,cpol           20          82  0.24290843    

 Point added to stored polar  1
 Save file unspecified or not available
 Dump file unspecified or not available

.OPERva   c>  
.OPERva   c>  
.OPERva   c>   Calculating wake trajectory ...
 Calculating source influence matrix ...

 Solving BL system ...

 Side 1  free  transition at x/c =  0.7462   67
 Side 2  free  transition at x/c =  0.8501   69

   1   rms: 0.1031E-01   max: -.3216E-01   T at   69  2
       a =  1.550      CL =  0.4600
      Cm = -0.0740     CD =  0.02327   =>   CDf =  0.00724    CDp =  0.01603

 Side 1  free  transition at x/c =  0.7456   67
 Side 2  free  transition at x/c =  0.8512   69

   2   rms: 0.4294E-03   max: -.1952E-02   D at   70  2
       a =  1.550      CL =  0.4602
      Cm = -0.0740     CD =  0.02328   =>   CDf =  0.00724    CDp =  0.01604

 Side 1  free  transition at x/c =  0.7457   67
 Side 2  free  transition at x/c =  0.8512   69

   3   rms: 0.6781E-05   max: 0.6675E-04   D at   71  2
       a =  1.550      CL =  0.4602
      Cm = -0.0740     CD =  0.02328   =>   CDf =  0.00724    CDp =  0.01604
 plradd ia,ip,cpol           21          82  0.24290843    

 Point added to stored polar  1
 Save file unspecified or not available
 Dump file unspecified or not available

.OPERva   c>  
.OPERva   c>  
.OPERva   c>   Calculating wake trajectory ...
 Calculating source influence matrix ...

 Solving BL system ...

 Side 1  free  transition at x/c =  0.7457   67
 Side 2  free  transition at x/c =  0.8512   69

   1   rms: 0.1100E-01   max: -.2852E-01   T at   69  2
       a =  1.600      CL =  0.4687
      Cm = -0.0743     CD =  0.02314   =>   CDf =  0.00724    CDp =  0.01590

 Side 1  free  transition at x/c =  0.7452   66
 Side 2  free  transition at x/c =  0.8524   69

   2   rms: 0.7541E-02   max: -.3799E-01   T at   66  1
       a =  1.600      CL =  0.4751
      Cm = -0.0753     CD =  0.02297   =>   CDf =  0.00725    CDp =  0.01572

 Side 1  free  transition at x/c =  0.7468   67
 Side 2  free  transition at x/c =  0.8522   69

   3   rms: 0.1393E-01   max: 0.7113E-01   D at   69  1
       a =  1.600      CL =  0.4689
      Cm = -0.0744     CD =  0.02316   =>   CDf =  0.00725    CDp =  0.01591

 Side 1  free  transition at x/c =  0.7451   66
 Side 2  free  transition at x/c =  0.8523   69

   4   rms: 0.7799E-02   max: -.3889E-01   T at   66  1
       a =  1.600      CL =  0.4751
      Cm = -0.0753     CD =  0.02297   =>   CDf =  0.00725    CDp =  0.01572

 Side 1  free  transition at x/c =  0.7468   67
 Side 2  free  transition at x/c =  0.8522   69

   5   rms: 0.1397E-01   max: 0.7124E-01   D at   69  1
       a =  1.600      CL =  0.4689
      Cm = -0.0744     CD =  0.02316   =>   CDf =  0.00725    CDp =  0.01591

 Side 1  free  transition at x/c =  0.7451   66
 Side 2  free  transition at x/c =  0.8523   69

   6   rms: 0.7804E-02   max: -.3891E-01   T at   66  1
       a =  1.600      CL =  0.4751
      Cm = -0.0753     CD =  0.02297   =>   CDf =  0.00725    CDp =  0.01572

 Side 1  free  transition at x/c =  0.7468   67
 Side 2  free  transition at x/c =  0.8522   69

   7   rms: 0.1398E-01   max: 0.7127E-01   D at   69  1
       a =  1.600      CL =  0.4689
      Cm = -0.0744     CD =  0.02316   =>   CDf =  0.00725    CDp =  0.01591

 Side 1  free  transition at x/c =  0.7451   66
 Side 2  free  transition at x/c =  0.8523   69

   8   rms: 0.7803E-02   max: -.3891E-01   T at   66  1
       a =  1.600      CL =  0.4751
      Cm = -0.0753     CD =  0.02297   =>   CDf =  0.00725    CDp =  0.01572

 Side 1  free  transition at x/c =  0.7468   67
 Side 2  free  transition at x/c =  0.8522   69

   9   rms: 0.1398E-01   max: 0.7127E-01   D at   69  1
       a =  1.600      CL =  0.4689
      Cm = -0.0744     CD =  0.02316   =>   CDf =  0.00725    CDp =  0.01591

 Side 1  free  transition at x/c =  0.7451   66
 Side 2  free  transition at x/c =  0.8523   69

  10   rms: 0.7803E-02   max: -.3891E-01   T at   66  1
       a =  1.600      CL =  0.4751
      Cm = -0.0753     CD =  0.02297   =>   CDf =  0.00725    CDp =  0.01572
 VISCAL:  Convergence failed

.OPERva   c>  
.OPERva   c>  
.OPERva   c>   Calculating wake trajectory ...
 Calculating source influence matrix ...

 Solving BL system ...

 Side 1  free  transition at x/c =  0.7468   67
 Side 2  free  transition at x/c =  0.8522   69

   1   rms: 0.1315E-01   max: 0.7582E-01   T at   67  1
       a =  1.650      CL =  0.4774
      Cm = -0.0747     CD =  0.02303   =>   CDf =  0.00725    CDp =  0.01577

 Side 1  free  transition at x/c =  0.7446   66
 Side 2  free  transition at x/c =  0.8535   69

   2   rms: 0.3400E-01   max: -.1664E+00   T at   66  1
       a =  1.650      CL =  0.5053
      Cm = -0.0788     CD =  0.02224   =>   CDf =  0.00716    CDp =  0.01507

 Side 1  free  transition at x/c =  0.7525   68
 Side 2  free  transition at x/c =  0.8527   68
 idif Ue xi dudx           1  0.17022017      2.02071667E-03   84.237526    
 Uenew xinew           2  1.32954698E-02  1.57833099E-04

   3   rms: 0.6008E-01   max: 0.3291E+00   D at   70  1
       a =  1.650      CL =  0.4781
      Cm = -0.0749     CD =  0.02291   =>   CDf =  0.00736    CDp =  0.01555

 Side 1  free  transition at x/c =  0.7445   66
 Side 2  free  transition at x/c =  0.8536   69

   4   rms: 0.3598E-01   max: -.1736E+00   D at   78  1
       a =  1.650      CL =  0.5049
      Cm = -0.0787     CD =  0.02227   =>   CDf =  0.00716    CDp =  0.01512

 Side 1  free  transition at x/c =  0.7522   68
 Side 2  free  transition at x/c =  0.8527   68
 idif Ue xi dudx           1  0.17023660      2.02071667E-03   84.245659    
 Uenew xinew           2  1.32967532E-02  1.57833099E-04

   5   rms: 0.5870E-01   max: 0.3173E+00   D at   70  1
       a =  1.650      CL =  0.4780
      Cm = -0.0749     CD =  0.02291   =>   CDf =  0.00736    CDp =  0.01555

 Side 1  free  transition at x/c =  0.7445   66
 Side 2  free  transition at x/c =  0.8536   69

   6   rms: 0.3602E-01   max: -.1728E+00   D at   78  1
       a =  1.650      CL =  0.5049
      Cm = -0.0787     CD =  0.02227   =>   CDf =  0.00716    CDp =  0.01512

 Side 1  free  transition at x/c =  0.7522   68
 Side 2  free  transition at x/c =  0.8527   68
 idif Ue xi dudx           1  0.17023000      2.02059746E-03   84.247360    
 Uenew xinew           2  1.32869789E-02  1.57713890E-04

   7   rms: 0.5884E-01   max: 0.3183E+00   D at   70  1
       a =  1.650      CL =  0.4780
      Cm = -0.0749     CD =  0.02291   =>   CDf =  0.00736    CDp =  0.01555

 Side 1  free  transition at x/c =  0.7445   66
 Side 2  free  transition at x/c =  0.8536   69

   8   rms: 0.3603E-01   max: -.1729E+00   D at   78  1
       a =  1.650      CL =  0.5049
      Cm = -0.0787     CD =  0.02227   =>   CDf =  0.00716    CDp =  0.01512

 Side 1  free  transition at x/c =  0.7522   68
 Side 2  free  transition at x/c =  0.8527   68
 idif Ue xi dudx           1  0.17022987      2.02059746E-03   84.247292    
 Uenew xinew           2  1.32869678E-02  1.57713890E-04

   9   rms: 0.5884E-01   max: 0.3183E+00   D at   70  1
       a =  1.650      CL =  0.4780
      Cm = -0.0749     CD =  0.02291   =>   CDf =  0.00736    CDp =  0.01555

 Side 1  free  transition at x/c =  0.7445   66
 Side 2  free  transition at x/c =  0.8536   69

  10   rms: 0.3604E-01   max: -.1729E+00   D at   78  1
       a =  1.650      CL =  0.5049
      Cm = -0.0787     CD =  0.02227   =>   CDf =  0.00716    CDp =  0.01512
 VISCAL:  Convergence failed

.OPERva   c>  
.OPERva   c>  
.OPERva   c>   Calculating wake trajectory ...
 Calculating source influence matrix ...

 Solving BL system ...

 Side 1  free  transition at x/c =  0.7522   68
 Side 2  free  transition at x/c =  0.8527   68

   1   rms: 0.5483E-01   max: 0.3021E+00   D at   70  1
       a =  1.700      CL =  0.4861
      Cm = -0.0752     CD =  0.02280   =>   CDf =  0.00726    CDp =  0.01554

 Side 1  free  transition at x/c =  0.7437   67
 Side 2  free  transition at x/c =  0.8548   68

   2   rms: 0.7813E-01   max: -.3625E+00   D at   79  1
       a =  1.700      CL =  0.5481
      Cm = -0.0842     CD =  0.02122   =>   CDf =  0.00724    CDp =  0.01398

 Side 1  free  transition at x/c =  0.7619   68
 Side 2  free  transition at x/c =  0.8528   68

   3   rms: 0.3890E+00   max: -.1895E+01   D at   79  1   RLX: 0.264
       a =  1.700      CL =  0.6409
      Cm = -0.1017     CD =  0.01777   =>   CDf =  0.00732    CDp =  0.01045

 MRCHDU: Convergence failed at  70  side 1    Res =  0.3055E+01
 MRCHDU: Convergence failed at  71  side 1    Res =  0.2704E+03
 MRCHDU: Convergence failed at  72  side 1    Res =  0.1028E+02
 MRCHDU: Convergence failed at  73  side 1    Res =  0.6741E+01
 MRCHDU: Convergence failed at  74  side 1    Res =  0.1014E+02
 MRCHDU: Convergence failed at  75  side 1    Res =  0.1893E+02
 MRCHDU: Convergence failed at  76  side 1    Res =  0.5018E+02
 MRCHDU: Convergence failed at  77  side 1    Res =  0.3429E+03
 MRCHDU: Convergence failed at  78  side 1    Res =  0.9706E+02
 MRCHDU: Convergence failed at  79  side 1    Res =  0.5396E+03
 MRCHDU: Convergence failed at  80  side 1    Res =  0.7986E+02
 MRCHDU: Convergence failed at  81  side 1    Res =  0.2255E+02
 MRCHDU: Convergence failed at  82  side 1    Res =  0.1283E+02
 MRCHDU: Convergence failed at  83  side 1    Res =  0.2062E+02
 MRCHDU: Convergence failed at  84  side 1    Res =  0.3634E+02
 Side 1  free  transition at x/c =  0.7849   70
 Side 2  free  transition at x/c =  0.8501   68
 idif Ue xi dudx           1  0.17765257      2.17449665E-03   81.698250    
 Uenew xinew           2  2.54582427E-02  3.11613083E-04

   4   rms: 0.5069E+00   max: 0.2147E+01   C at   70  1   RLX: 0.542
       a =  1.700      CL =  0.5164
      Cm = -0.1070     CD =  0.01100   =>   CDf =  0.00721    CDp =  0.00379

 Side 1  free  transition at x/c =  0.7445   66
 Side 2  free  transition at x/c =  0.8588   69

   5   rms: 0.6708E+00   max: -.4793E+01   T at   66  1   RLX: 0.104
       a =  1.700      CL =  0.5449
      Cm = -0.0958     CD =  0.02232   =>   CDf =  0.00702    CDp =  0.01531

 Side 1  free  transition at x/c =  0.7688   69
 Side 2  free  transition at x/c =  0.8557   68
 idif Ue xi dudx           1  0.24259797      3.02958488E-03   80.076309    
 Uenew xinew           2  9.34251323E-02  1.16670132E-03

   6   rms: 0.1517E+00   max: 0.1073E+01   T at   69  1
       a =  1.700      CL =  0.3987
[...]
 plradd ia,ip,cpol           55          85  0.12443948    

 Point added to stored polar  1
 Save file unspecified or not available
 Dump file unspecified or not available

.OPERva   c>  
.OPERva   c>  
.OPERva   c>   Calculating wake trajectory ...
 Calculating source influence matrix ...

 Solving BL system ...

 Side 1  free  transition at x/c =  0.6740   65
 Side 2  free  transition at x/c =  0.9326   71

   1   rms: 0.8626E-02   max: 0.5556E-01   T at   65  1
       a =  3.900      CL =  0.6959
      Cm = -0.0692     CD =  0.02263   =>   CDf =  0.00710    CDp =  0.01553

 Side 1  free  transition at x/c =  0.6714   65
 Side 2  free  transition at x/c =  0.9355   71

   2   rms: 0.2990E-02   max: -.1186E-01   D at   68  1
       a =  3.900      CL =  0.6978
      Cm = -0.0695     CD =  0.02255   =>   CDf =  0.00708    CDp =  0.01547

 Side 1  free  transition at x/c =  0.6718   65
 Side 2  free  transition at x/c =  0.9354   71

   3   rms: 0.1909E-03   max: 0.6300E-03   C at   71  2
       a =  3.900      CL =  0.6979
      Cm = -0.0695     CD =  0.02255   =>   CDf =  0.00708    CDp =  0.01547

 Side 1  free  transition at x/c =  0.6718   65
 Side 2  free  transition at x/c =  0.9353   71

   4   rms: 0.5392E-05   max: 0.2235E-04   C at   71  2
       a =  3.900      CL =  0.6979
      Cm = -0.0695     CD =  0.02255   =>   CDf =  0.00708    CDp =  0.01547
 plradd ia,ip,cpol           56          85  0.12443948    

 Point added to stored polar  1
 Save file unspecified or not available
 Dump file unspecified or not available

.OPERva   c>  
.OPERva   c>  
.OPERva   c>   Calculating wake trajectory ...
 Calculating source influence matrix ...

 Solving BL system ...

 Side 1  free  transition at x/c =  0.6718   65
 Side 2  free  transition at x/c =  0.9353   71

   1   rms: 0.9133E-02   max: -.4763E-01   D at    3  2
       a =  3.950      CL =  0.7030
      Cm = -0.0695     CD =  0.02257   =>   CDf =  0.00708    CDp =  0.01549

 Side 1  free  transition at x/c =  0.6699   65
 Side 2  free  transition at x/c =  0.9380   71

   2   rms: 0.1677E-02   max: -.6734E-02   D at   68  1
       a =  3.950      CL =  0.7040
      Cm = -0.0696     CD =  0.02253   =>   CDf =  0.00707    CDp =  0.01546

 Side 1  free  transition at x/c =  0.6701   65
 Side 2  free  transition at x/c =  0.9379   71

   3   rms: 0.7913E-04   max: 0.2662E-03   C at   71  2
       a =  3.950      CL =  0.7040
      Cm = -0.0696     CD =  0.02253   =>   CDf =  0.00707    CDp =  0.01546
 plradd ia,ip,cpol           57          85  0.12443948    

 Point added to stored polar  1
 Save file unspecified or not available
 Dump file unspecified or not available

.OPERva   c>  
.OPERva   c>  
.OPERva   c>   Calculating wake trajectory ...
 Calculating source influence matrix ...

 Solving BL system ...

 Side 1  free  transition at x/c =  0.6702   65
 Side 2  free  transition at x/c =  0.9379   71

   1   rms: 0.9771E-02   max: -.5882E-01   D at    3  2
       a =  4.000      CL =  0.7107
      Cm = -0.0698     CD =  0.02250   =>   CDf =  0.00691    CDp =  0.01559

 Side 1  free  transition at x/c =  0.6687   66
 Side 2  free  transition at x/c =  0.9404   70

   2   rms: 0.9731E-03   max: 0.4471E-02   D at    3  2
       a =  4.000      CL =  0.7112
      Cm = -0.0699     CD =  0.02248   =>   CDf =  0.00706    CDp =  0.01543

 Side 1  free  transition at x/c =  0.6688   66
 Side 2  free  transition at x/c =  0.9404   70

   3   rms: 0.4747E-04   max: 0.4328E-03   D at    4  1
       a =  4.000      CL =  0.7113
      Cm = -0.0699     CD =  0.02249   =>   CDf =  0.00706    CDp =  0.01543
 plradd ia,ip,cpol           58          86  0.12443948    

 Point added to stored polar  1
 Save file unspecified or not available
 Dump file unspecified or not available

.OPERva   c>  
.OPERva   c>  
.OPERva   c>   Calculating wake trajectory ...
 Calculating source influence matrix ...

 Solving BL system ...

 Side 1  free  transition at x/c =  0.6688   66
 Side 2  free  transition at x/c =  0.9404   70

   1   rms: 0.1123E-01   max: -.8770E-01   D at    3  1
       a =  4.050      CL =  0.7190
      Cm = -0.0702     CD =  0.02242   =>   CDf =  0.00706    CDp =  0.01536

 Side 1  free  transition at x/c =  0.6676   66
 Side 2  free  transition at x/c =  0.9428   70

   2   rms: 0.7409E-03   max: -.3089E-02   D at   68  1
       a =  4.050      CL =  0.7194
      Cm = -0.0703     CD =  0.02240   =>   CDf =  0.00706    CDp =  0.01535

 Side 1  free  transition at x/c =  0.6677   66
 Side 2  free  transition at x/c =  0.9428   70

   3   rms: 0.2524E-04   max: 0.8549E-04   C at   70  2
       a =  4.050      CL =  0.7195
      Cm = -0.0703     CD =  0.02241   =>   CDf =  0.00706    CDp =  0.01535
 plradd ia,ip,cpol           59          86  0.12443948    

 Point added to stored polar  1
 Save file unspecified or not available
 Dump file unspecified or not available

.OPERva   c>  
.OPERva   c>  
.OPERva   c>   Calculating wake trajectory ...
 Calculating source influence matrix ...

 Solving BL system ...

 Side 1  free  transition at x/c =  0.6677   66
 Side 2  free  transition at x/c =  0.9428   70

   1   rms: 0.1092E-01   max: -.1972E-01   T at   70  2
       a =  4.100      CL =  0.7279
      Cm = -0.0707     CD =  0.02231   =>   CDf =  0.00706    CDp =  0.01525

 Side 1  free  transition at x/c =  0.6665   66
 Side 2  free  transition at x/c =  0.9447   71

   2   rms: 0.7586E-02   max: -.9777E-01   D at   70  2
       a =  4.100      CL =  0.7285
      Cm = -0.0708     CD =  0.02229   =>   CDf =  0.00707    CDp =  0.01522

 Side 1  free  transition at x/c =  0.6666   66
 Side 2  free  transition at x/c =  0.9450   71

   3   rms: 0.7874E-03   max: 0.8620E-02   C at   71  2
       a =  4.100      CL =  0.7289
      Cm = -0.0709     CD =  0.02230   =>   CDf =  0.00706    CDp =  0.01524

 Side 1  free  transition at x/c =  0.6666   66
 Side 2  free  transition at x/c =  0.9447   71

   4   rms: 0.1016E-04   max: 0.7972E-04   C at   71  2
       a =  4.100      CL =  0.7290
      Cm = -0.0709     CD =  0.02230   =>   CDf =  0.00706    CDp =  0.01524
 plradd ia,ip,cpol           60          86  0.12443948    

 Point added to stored polar  1
 Save file unspecified or not available
 Dump file unspecified or not available

.OPERva   c>  
.OPERva   c>  
.OPERva   c>   Calculating wake trajectory ...
 Calculating source influence matrix ...

 Solving BL system ...

 Side 1  free  transition at x/c =  0.6666   66
 Side 2  free  transition at x/c =  0.9447   71

   1   rms: 0.1205E-01   max: -.2914E-01   C at   71  2
       a =  4.150      CL =  0.7389
      Cm = -0.0716     CD =  0.02218   =>   CDf =  0.00706    CDp =  0.01512

 Side 1  free  transition at x/c =  0.6655   66
 Side 2  free  transition at x/c =  0.9465   71

   2   rms: 0.5530E-03   max: -.2347E-02   D at   68  1
       a =  4.150      CL =  0.7392
      Cm = -0.0716     CD =  0.02218   =>   CDf =  0.00706    CDp =  0.01512

 Side 1  free  transition at x/c =  0.6656   66
 Side 2  free  transition at x/c =  0.9465   71

   3   rms: 0.1488E-04   max: 0.8222E-04   C at   71  2
       a =  4.150      CL =  0.7392
      Cm = -0.0716     CD =  0.02218   =>   CDf =  0.00706    CDp =  0.01512
 plradd ia,ip,cpol           61          86  7.42486119E-02

 Point added to stored polar  1
 Save file unspecified or not available
 Dump file unspecified or not available

.OPERva   c>  
.OPERva   c>  
.OPERva   c>   Calculating wake trajectory ...
 Calculating source influence matrix ...

 Solving BL system ...

 Side 1  free  transition at x/c =  0.6656   66
 Side 2  free  transition at x/c =  0.9465   71

   1   rms: 0.1193E-01   max: -.2419E-01   C at   71  2
       a =  4.200      CL =  0.7494
      Cm = -0.0724     CD =  0.02206   =>   CDf =  0.00706    CDp =  0.01500

 Side 1  free  transition at x/c =  0.6646   66
 Side 2  free  transition at x/c =  0.9483   71

   2   rms: 0.6833E-03   max: -.3365E-02   D at   67  1
       a =  4.200      CL =  0.7497
      Cm = -0.0724     CD =  0.02206   =>   CDf =  0.00707    CDp =  0.01500

 Side 1  free  transition at x/c =  0.6647   66
 Side 2  free  transition at x/c =  0.9482   71

   3   rms: 0.2250E-04   max: 0.1166E-03   C at   71  2
       a =  4.200      CL =  0.7498
      Cm = -0.0724     CD =  0.02206   =>   CDf =  0.00707    CDp =  0.01500
 plradd ia,ip,cpol           62          86  7.42486119E-02

 Point added to stored polar  1
 Save file unspecified or not available
 Dump file unspecified or not available

.OPERva   c>  
.OPERva   c>  
.OPERva   c>   Calculating wake trajectory ...
 Calculating source influence matrix ...

 Solving BL system ...

 Side 1  free  transition at x/c =  0.6647   66
 Side 2  free  transition at x/c =  0.9482   71

   1   rms: 0.1282E-01   max: -.1976E-01   C at   71  2
       a =  4.250      CL =  0.7606
      Cm = -0.0732     CD =  0.02192   =>   CDf =  0.00707    CDp =  0.01486

 Side 1  free  transition at x/c =  0.6638   66
 Side 2  free  transition at x/c =  0.9500   71

   2   rms: 0.3852E-03   max: -.1587E-02   D at   67  1
       a =  4.250      CL =  0.7609
      Cm = -0.0733     CD =  0.02193   =>   CDf =  0.00708    CDp =  0.01485

 Side 1  free  transition at x/c =  0.6638   66
 Side 2  free  transition at x/c =  0.9500   71

   3   rms: 0.8593E-05   max: 0.3486E-04   D at   72  2
       a =  4.250      CL =  0.7609
      Cm = -0.0733     CD =  0.02193   =>   CDf =  0.00708    CDp =  0.01485
 plradd ia,ip,cpol           63          86  7.42486119E-02

 Point added to stored polar  1
 Save file unspecified or not available
 Dump file unspecified or not available

.OPERva   c>  
.OPERva   c>  
.OPERva   c>   Calculating wake trajectory ...
 Calculating source influence matrix ...

 Solving BL system ...

 Side 1  free  transition at x/c =  0.6638   66
 Side 2  free  transition at x/c =  0.9500   71

   1   rms: 0.1244E-01   max: 0.1827E-01   D at   74  2
       a =  4.300      CL =  0.7719
      Cm = -0.0741     CD =  0.02181   =>   CDf =  0.00708    CDp =  0.01473

 Side 1  free  transition at x/c =  0.6630   66
 Side 2  free  transition at x/c =  0.9519   71

   2   rms: 0.4257E-03   max: -.2085E-02   D at   67  1
       a =  4.300      CL =  0.7722
      Cm = -0.0742     CD =  0.02181   =>   CDf =  0.00709    CDp =  0.01473

 Side 1  free  transition at x/c =  0.6630   66
 Side 2  free  transition at x/c =  0.9518   71

   3   rms: 0.1236E-04   max: 0.8074E-04   C at   71  2
       a =  4.300      CL =  0.7722
      Cm = -0.0742     CD =  0.02181   =>   CDf =  0.00709    CDp =  0.01473
 plradd ia,ip,cpol           64          86  7.42486119E-02

 Point added to stored polar  1
 Save file unspecified or not available
 Dump file unspecified or not available

.OPERva   c>  
.OPERva   c>  
.OPERva   c>   Calculating wake trajectory ...
 Calculating source influence matrix ...

 Solving BL system ...

 Side 1  free  transition at x/c =  0.6630   66
 Side 2  free  transition at x/c =  0.9518   71

   1   rms: 0.1299E-01   max: 0.1772E-01   D at   74  2
       a =  4.350      CL =  0.7836
      Cm = -0.0751     CD =  0.02168   =>   CDf =  0.00709    CDp =  0.01459

 Side 1  free  transition at x/c =  0.6622   65
 Side 2  free  transition at x/c =  0.9536   71

   2   rms: 0.4242E-01   max: 0.1673E+00   D at   79  1
       a =  4.350      CL =  0.7532
      Cm = -0.0709     CD =  0.02269   =>   CDf =  0.00709    CDp =  0.01560

 Side 1  free  transition at x/c =  0.6560   65
 Side 2  free  transition at x/c =  0.9596   72

   3   rms: 0.1880E-01   max: -.1014E+00   D at   71  2
       a =  4.350      CL =  0.7644
      Cm = -0.0725     CD =  0.02222   =>   CDf =  0.00699    CDp =  0.01523

 Side 1  free  transition at x/c =  0.6586   65
 Side 2  free  transition at x/c =  0.9582   72

   4   rms: 0.5075E-02   max: 0.3838E-01   C at   72  2
       a =  4.350      CL =  0.7679
      Cm = -0.0730     CD =  0.02215   =>   CDf =  0.00702    CDp =  0.01512

 Side 1  free  transition at x/c =  0.6592   65
 Side 2  free  transition at x/c =  0.9572   71

   5   rms: 0.7661E-03   max: 0.4455E-02   D at   72  2
       a =  4.350      CL =  0.7687
      Cm = -0.0731     CD =  0.02214   =>   CDf =  0.00703    CDp =  0.01511

 Side 1  free  transition at x/c =  0.6593   65
 Side 2  free  transition at x/c =  0.9569   71

   6   rms: 0.1607E-04   max: 0.6629E-04   C at   71  2
       a =  4.350      CL =  0.7687
      Cm = -0.0731     CD =  0.02214   =>   CDf =  0.00703    CDp =  0.01511
 plradd ia,ip,cpol           65          86  7.42486119E-02

 Point added to stored polar  1
 Save file unspecified or not available
 Dump file unspecified or not available

.OPERva   c>  
.OPERva   c>  
.OPERva   c>   Calculating wake trajectory ...
 Calculating source influence matrix ...

 Solving BL system ...

 Side 1  free  transition at x/c =  0.6593   65
 Side 2  free  transition at x/c =  0.9569   71

   1   rms: 0.1309E-01   max: 0.7930E-01   T at   65  1
       a =  4.400      CL =  0.7668
      Cm = -0.0722     CD =  0.02246   =>   CDf =  0.00703    CDp =  0.01543

 Side 1  free  transition at x/c =  0.6555   65
 Side 2  free  transition at x/c =  0.9614   72

   2   rms: 0.8783E-02   max: -.1000E+00   D at   71  2
       a =  4.400      CL =  0.7721
      Cm = -0.0730     CD =  0.02229   =>   CDf =  0.00699    CDp =  0.01529

 Side 1  free  transition at x/c =  0.6564   65
 Side 2  free  transition at x/c =  0.9606   72

   3   rms: 0.1319E-02   max: 0.1600E-01   C at   72  2
       a =  4.400      CL =  0.7729
      Cm = -0.0731     CD =  0.02229   =>   CDf =  0.00700    CDp =  0.01529

 Side 1  free  transition at x/c =  0.6564   65
 Side 2  free  transition at x/c =  0.9602   72

   4   rms: 0.2610E-04   max: 0.2435E-03   C at   72  2
       a =  4.400      CL =  0.7729
      Cm = -0.0731     CD =  0.02229   =>   CDf =  0.00700    CDp =  0.01529
 plradd ia,ip,cpol           66          86  7.42486119E-02

 Point added to stored polar  1
 Save file unspecified or not available
 Dump file unspecified or not available

.OPERva   c>  
.OPERva   c>  
.OPERva   c>   Calculating wake trajectory ...
 Calculating source influence matrix ...

 Solving BL system ...

 Side 1  free  transition at x/c =  0.6564   65
 Side 2  free  transition at x/c =  0.9602   72

   1   rms: 0.1101E-01   max: -.5715E-01   C at   72  2
       a =  4.450      CL =  0.7799
      Cm = -0.0736     CD =  0.02234   =>   CDf =  0.00700    CDp =  0.01535

 Side 1  free  transition at x/c =  0.6542   65
 Side 2  free  transition at x/c =  0.9630   72

   2   rms: 0.1865E-02   max: -.8102E-02   D at   68  1
       a =  4.450      CL =  0.7810
      Cm = -0.0737     CD =  0.02229   =>   CDf =  0.00698    CDp =  0.01531

 Side 1  free  transition at x/c =  0.6545   65
 Side 2  free  transition at x/c =  0.9629   72

   3   rms: 0.9358E-04   max: 0.6202E-03   C at   72  2
       a =  4.450      CL =  0.7810
      Cm = -0.0737     CD =  0.02230   =>   CDf =  0.00698    CDp =  0.01531
 plradd ia,ip,cpol           67          86  7.42486119E-02

 Point added to stored polar  1
 Save file unspecified or not available
 Dump file unspecified or not available

.OPERva   c>  
.OPERva   c>  
.OPERva   c>   Calculating wake trajectory ...
 Calculating source influence matrix ...

 Solving BL system ...

 Side 1  free  transition at x/c =  0.6545   65
 Side 2  free  transition at x/c =  0.9628   72

   1   rms: 0.1063E-01   max: -.4127E-01   C at   72  2
       a =  4.500      CL =  0.7900
      Cm = -0.0743     CD =  0.02227   =>   CDf =  0.00698    CDp =  0.01528

 Side 1  free  transition at x/c =  0.6526   65
 Side 2  free  transition at x/c =  0.9653   72

   2   rms: 0.1236E-02   max: -.5690E-02   D at   67  1
       a =  4.500      CL =  0.7905
      Cm = -0.0744     CD =  0.02224   =>   CDf =  0.00698    CDp =  0.01526

 Side 1  free  transition at x/c =  0.6528   65
 Side 2  free  transition at x/c =  0.9652   72

   3   rms: 0.5542E-04   max: 0.4377E-03   C at   72  2
       a =  4.500      CL =  0.7906
      Cm = -0.0744     CD =  0.02224   =>   CDf =  0.00698    CDp =  0.01526
 plradd ia,ip,cpol           68          86  7.42486119E-02

 Point added to stored polar  1
 Save file unspecified or not available
 Dump file unspecified or not available

.OPERva   c>  
.OPERva   c>  
.OPERva   c>   Calculating wake trajectory ...
 Calculating source influence matrix ...

 Solving BL system ...

 Side 1  free  transition at x/c =  0.6528   65
 Side 2  free  transition at x/c =  0.9652   72

   1   rms: 0.1202E-01   max: -.3408E-01   C at   72  2
       a =  4.550      CL =  0.8006
      Cm = -0.0752     CD =  0.02217   =>   CDf =  0.00698    CDp =  0.01519

 Side 1  free  transition at x/c =  0.6513   65
 Side 2  free  transition at x/c =  0.9678   72

   2   rms: 0.9505E-03   max: -.4582E-02   D at   67  1
       a =  4.550      CL =  0.8010
      Cm = -0.0753     CD =  0.02215   =>   CDf =  0.00698    CDp =  0.01518

 Side 1  free  transition at x/c =  0.6514   65
 Side 2  free  transition at x/c =  0.9677   72

   3   rms: 0.3825E-04   max: 0.3079E-03   C at   72  2
       a =  4.550      CL =  0.8010
      Cm = -0.0753     CD =  0.02215   =>   CDf =  0.00698    CDp =  0.01518
 plradd ia,ip,cpol           69          86  7.42486119E-02

 Point added to stored polar  1
 Save file unspecified or not available
 Dump file unspecified or not available

.OPERva   c>  
.OPERva   c>  
.OPERva   c>   Calculating wake trajectory ...
 Calculating source influence matrix ...

 Solving BL system ...

 Side 1  free  transition at x/c =  0.6514   65
 Side 2  free  transition at x/c =  0.9677   72

   1   rms: 0.1240E-01   max: -.6540E-01   D at    3  2
       a =  4.600      CL =  0.8116
      Cm = -0.0761     CD =  0.02205   =>   CDf =  0.00681    CDp =  0.01524

 Side 1  free  transition at x/c =  0.6500   66
 Side 2  free  transition at x/c =  0.9701   71

   2   rms: 0.1365E-02   max: -.1076E-01   D at    3  2
       a =  4.600      CL =  0.8120
      Cm = -0.0762     CD =  0.02204   =>   CDf =  0.00697    CDp =  0.01507

 Side 1  free  transition at x/c =  0.6501   66
 Side 2  free  transition at x/c =  0.9700   71

   3   rms: 0.1169E-02   max: -.1505E-01   D at    4  1
       a =  4.600      CL =  0.8120
      Cm = -0.0762     CD =  0.02204   =>   CDf =  0.00697    CDp =  0.01507

 Side 1  free  transition at x/c =  0.6501   66
 Side 2  free  transition at x/c =  0.9700   71

   4   rms: 0.5786E-05   max: -.5793E-04   D at    7  1
       a =  4.600      CL =  0.8120
      Cm = -0.0762     CD =  0.02204   =>   CDf =  0.00697    CDp =  0.01507
 plradd ia,ip,cpol           70          87  7.42486119E-02

 Point added to stored polar  1
 Save file unspecified or not available
 Dump file unspecified or not available

.OPERva   c>  
.OPERva   c>  
.OPERva   c>   Calculating wake trajectory ...
 Calculating source influence matrix ...

 Solving BL system ...

 Side 1  free  transition at x/c =  0.6501   66
 Side 2  free  transition at x/c =  0.9700   71

   1   rms: 0.1241E-01   max: -.1968E-01   C at   71  2
       a =  4.650      CL =  0.8230
      Cm = -0.0771     CD =  0.02191   =>   CDf =  0.00697    CDp =  0.01494

 Side 1  free  transition at x/c =  0.6489   66
 Side 2  free  transition at x/c =  0.9714   72

   2   rms: 0.1073E-01   max: -.1594E+00   C at   72  2
       a =  4.650      CL =  0.8238
      Cm = -0.0772     CD =  0.02190   =>   CDf =  0.00698    CDp =  0.01492

 Side 1  free  transition at x/c =  0.6490   66
 Side 2  free  transition at x/c =  0.9722   72

   3   rms: 0.1088E-02   max: 0.1648E-01   C at   72  2
       a =  4.650      CL =  0.8242
      Cm = -0.0773     CD =  0.02191   =>   CDf =  0.00698    CDp =  0.01493

 Side 1  free  transition at x/c =  0.6490   66
 Side 2  free  transition at x/c =  0.9718   72

   4   rms: 0.6259E-05   max: -.8428E-04   D at   72  2
       a =  4.650      CL =  0.8242
