
 ===================================================
  XFOIL Version 6.99
  Copyright (C) 2000   Mark Drela, Harold Youngren

  This software comes with ABSOLUTELY NO WARRANTY,
    subject to the GNU General Public License.

  Caveat computor
 ===================================================

 File  xfoil.def  not found

   QUIT    Exit program

  .OPER    Direct operating point(s)
  .MDES    Complex mapping design routine
  .QDES    Surface speed design routine
  .GDES    Geometry design routine

   SAVE f  Write airfoil to labeled coordinate file
   PSAV f  Write airfoil to plain coordinate file
   ISAV f  Write airfoil to ISES coordinate file
   MSAV f  Write airfoil to MSES coordinate file
   REVE    Reverse written-airfoil node ordering

   LOAD f  Read buffer airfoil from coordinate file
   NACA i  Set NACA 4,5-digit airfoil and buffer airfoil
   INTE    Set buffer airfoil by interpolating two airfoils
   NORM    Buffer airfoil normalization toggle
   XYCM rr Change CM reference location, currently  0.25000 0.00000

   BEND    Display structural properties of current airfoil

   PCOP    Set current-airfoil panel nodes directly from buffer airfoil points
   PANE    Set current-airfoil panel nodes ( 160 ) based on curvature
  .PPAR    Show/change paneling

  .PLOP    Plotting options

   WDEF f  Write  current-settings file
   RDEF f  Reread current-settings file
   NAME s  Specify new airfoil name
   NINC    Increment name version number

   Z       Zoom    | (available in all menus)
   U       Unzoom  | 

 XFOIL   c>  
 Labeled airfoil file.  Name:  SG6040                                          

 Number of input coordinate points:  81
 Counterclockwise ordering
 Max thickness =     0.160016  at x =   0.353
 Max camber    =     0.025156  at x =   0.582

  LE  x,y  =   0.00009  -0.00040  |   Chord =   0.99991
  TE  x,y  =   1.00000   0.00000  |

 Current airfoil nodes set from buffer airfoil nodes (  81 )

 XFOIL   c>  
  F  disk file
  C  current airfoil  SG6040                                          

  Select source of airfoil "0" ( F C ):  
Enter filename   s>  
  Select source of airfoil "1" ( F C ):  
Enter filename   s>  
 airfoil "0":  SG6040                                          
 airfoil "1":  WORTMANN FX 63-137 AIRFOIL                      

Specify interpolating fraction  0...1   r>   Max thickness =     0.154151  at x =   0.352
 Max camber    =     0.032900  at x =   0.568

Enter new airfoil name   s>  
 Result has been placed in buffer airfoil
 Execute PCOP or PANE to set new current airfoil

 XFOIL   c>  
 Sharp trailing edge

 Paneling parameters used...
   Number of panel nodes       160
   Panel bunching parameter    1.000
   TE/LE panel density ratio   0.150
   Refined-area/LE panel density ratio    0.200
   Top    side refined area x/c limits  1.000 1.000
   Bottom side refined area x/c limits  1.000 1.000

 XFOIL   c>  
 XFOIL   c>  
 XFOIL   c>  
.OPERi   c>  
.OPERi   c>  
 Sonic Cp =   -550.04      Sonic Q/Qinf =    26.096


.OPERi   c>  
 M  =    0.0350
 Re =     90000

.OPERv   c>  
 Polar  1 newly created for accumulation
 Airfoil archived with polar: BlendedAirfoil                                  

Enter  polar save filename  OR  <return> for no file   s>  
 Polar save file will NOT be written

Enter  polar dump filename  OR  <return> for no file   s>  
 Polar dump file will NOT be written

 Polar accumulation enabled

.OPERva   c>   Calculating unit vorticity distributions ...
 Calculating wake trajectory ...
 Calculating source influence matrix ...

 Solving BL system ...

 Initializing BL ...
    side            1  ...
 MRCHUE: Inverse mode at  53     Hk =   4.027
 MRCHUE: Inverse mode at  54     Hk =   4.342
 MRCHUE: Inverse mode at  55     Hk =   4.648
 MRCHUE: Inverse mode at  56     Hk =   4.948
 MRCHUE: Inverse mode at  57     Hk =   5.244
 MRCHUE: Inverse mode at  58     Hk =   5.536
 MRCHUE: Inverse mode at  59     Hk =   5.823
 MRCHUE: Inverse mode at  60     Hk =   6.106
 MRCHUE: Inverse mode at  61     Hk =   6.386
 MRCHUE: Inverse mode at  62     Hk =   6.663
 MRCHUE: Inverse mode at  63     Hk =   6.938
 MRCHUE: Inverse mode at  64     Hk =   7.210
 MRCHUE: Inverse mode at  65     Hk =   7.480
 MRCHUE: Inverse mode at  66     Hk =   7.747
 MRCHUE: Inverse mode at  67     Hk =   8.014
 MRCHUE: Inverse mode at  68     Hk =   8.281
 MRCHUE: Inverse mode at  69     Hk =   8.546
 MRCHUE: Inverse mode at  70     Hk =   8.808
 MRCHUE: Inverse mode at  71     Hk =   9.068
 MRCHUE: Inverse mode at  72     Hk =   9.326
 MRCHUE: Inverse mode at  73     Hk =   9.582
 MRCHUE: Inverse mode at  74     Hk =   8.608
 MRCHUE: Inverse mode at  75     Hk =   7.636
 MRCHUE: Inverse mode at  76     Hk =   6.883
 MRCHUE: Inverse mode at  77     Hk =   6.274
 MRCHUE: Inverse mode at  78     Hk =   5.768
 MRCHUE: Inverse mode at  79     Hk =   5.341
 MRCHUE: Inverse mode at  80     Hk =   4.978
 MRCHUE: Inverse mode at  81     Hk =   4.672
 MRCHUE: Inverse mode at  82     Hk =   4.423
 MRCHUE: Inverse mode at  83     Hk =   4.286
    side            2  ...
 MRCHUE: Inverse mode at  48     Hk =   3.800
 MRCHUE: Inverse mode at  49     Hk =   4.090
 MRCHUE: Inverse mode at  50     Hk =   4.376
 MRCHUE: Inverse mode at  51     Hk =   4.658
 MRCHUE: Inverse mode at  52     Hk =   4.936
 MRCHUE: Inverse mode at  53     Hk =   5.210
 MRCHUE: Inverse mode at  54     Hk =   5.480
 MRCHUE: Inverse mode at  55     Hk =   5.746
 MRCHUE: Convergence failed at  56  side 2    Res =  0.2035E+01
 MRCHUE: Inverse mode at  57     Hk =   6.003
 MRCHUE: Inverse mode at  58     Hk =   6.255
 MRCHUE: Inverse mode at  59     Hk =   6.501
 MRCHUE: Inverse mode at  60     Hk =   6.744
 MRCHUE: Inverse mode at  61     Hk =   6.982
 MRCHUE: Inverse mode at  62     Hk =   7.217
 MRCHUE: Inverse mode at  63     Hk =   7.448
 MRCHUE: Inverse mode at  64     Hk =   7.675
 MRCHUE: Inverse mode at  65     Hk =   7.899
 MRCHUE: Inverse mode at  66     Hk =   8.119
 MRCHUE: Inverse mode at  67     Hk =   8.335
 MRCHUE: Inverse mode at  68     Hk =   8.549
 MRCHUE: Inverse mode at  69     Hk =   8.759
 MRCHUE: Inverse mode at  70     Hk =   8.965
 MRCHUE: Inverse mode at  71     Hk =   9.168
 MRCHUE: Inverse mode at  72     Hk =   9.366
 MRCHUE: Inverse mode at  73     Hk =   9.558
 MRCHUE: Inverse mode at  74     Hk =   9.742
 MRCHUE: Inverse mode at  75     Hk =   9.166
 MRCHUE: Inverse mode at  76     Hk =   8.473
 MRCHUE: Inverse mode at  77     Hk =   7.942
 MRCHUE: Inverse mode at  78     Hk =   7.523
 MRCHUE: Inverse mode at  79     Hk =   7.295
 MRCHUE: Inverse mode at  81     Hk =   4.638
 MRCHUE: Inverse mode at  82     Hk =   4.098
 MRCHUE: Inverse mode at  83     Hk =   3.703
 MRCHUE: Inverse mode at  84     Hk =   3.401
 MRCHUE: Inverse mode at  85     Hk =   3.161

 Side 1  free  transition at x/c =  0.8664   74
 Side 2  free  transition at x/c =  0.9484   75
 idif Ue xi dudx           2  0.34604096      4.37760353E-03   79.048035    
 Uenew xinew           3  0.20004639      2.53069401E-03

   1   rms: 0.5057E+00   max: 0.1906E+01   T at   75  2   RLX: 0.499
       a =  0.000      CL =  0.3487
      Cm = -0.0862     CD =  0.01670   =>   CDf =  0.00828    CDp =  0.00842

 Side 1  free  transition at x/c =  0.8409   70
 Side 2  free  transition at x/c =  0.8988   74
 idif Ue xi dudx           1  0.25195137      3.61847878E-03   69.629082    
 Uenew xinew           2  0.11334242      1.62780285E-03

   2   rms: 0.1209E+01   max: 0.5621E+01   T at   70  1   RLX: 0.161
       a =  0.000      CL =  0.1397
      Cm = -0.0548     CD =  0.01802   =>   CDf =  0.00780    CDp =  0.01022

 Side 1  free  transition at x/c =  0.8109   67
 Side 2  free  transition at x/c =  0.9048   75
 idif Ue xi dudx           1  0.20812491      3.45182419E-03   60.294178    
 Uenew xinew           2  8.25498849E-02  1.36911869E-03

   3   rms: 0.2562E+00   max: 0.1630E+01   T at   67  1   RLX: 0.536
       a =  0.000      CL =  0.0222
      Cm = -0.0348     CD =  0.02461   =>   CDf =  0.00745    CDp =  0.01715

 Side 1  free  transition at x/c =  0.7877   65
 Side 2  free  transition at x/c =  0.8650   73

   4   rms: 0.9271E-01   max: 0.5192E+00   T at   73  2
       a =  0.000      CL =  0.0968
      Cm = -0.0469     CD =  0.03178   =>   CDf =  0.00717    CDp =  0.02462

 Side 1  free  transition at x/c =  0.7805   65
 Side 2  free  transition at x/c =  0.8346   72

   5   rms: 0.5058E-01   max: -.2656E+00   D at   72  2
       a =  0.000      CL =  0.1292
      Cm = -0.0530     CD =  0.03106   =>   CDf =  0.00718    CDp =  0.02389

 Side 1  free  transition at x/c =  0.7845   66
 Side 2  free  transition at x/c =  0.8364   71

   6   rms: 0.1202E-01   max: -.9586E-01   D at    2  1
       a =  0.000      CL =  0.1344
      Cm = -0.0535     CD =  0.03089   =>   CDf =  0.00727    CDp =  0.02362

 Side 1  free  transition at x/c =  0.7859   66
 Side 2  free  transition at x/c =  0.8360   71

   7   rms: 0.1306E-02   max: 0.1196E-01   D at    4  1
       a =  0.000      CL =  0.1351
      Cm = -0.0536     CD =  0.03092   =>   CDf =  0.00728    CDp =  0.02364

 Side 1  free  transition at x/c =  0.7859   66
 Side 2  free  transition at x/c =  0.8359   71

   8   rms: 0.2772E-04   max: 0.1487E-03   T at   71  2
       a =  0.000      CL =  0.1351
      Cm = -0.0536     CD =  0.03092   =>   CDf =  0.00728    CDp =  0.02364
 plradd ia,ip,cpol            1          79  0.26027939    

 Point added to stored polar  1
 Save file unspecified or not available
 Dump file unspecified or not available

.OPERva   c>  
.OPERva   c>  
.OPERva   c>   Calculating wake trajectory ...
 Calculating source influence matrix ...

 Solving BL system ...

 Side 1  free  transition at x/c =  0.7859   66
 Side 2  free  transition at x/c =  0.8359   71

   1   rms: 0.9912E-02   max: -.4440E-01   T at   71  2
       a =  0.050      CL =  0.1401
      Cm = -0.0533     CD =  0.03087   =>   CDf =  0.00728    CDp =  0.02359

 Side 1  free  transition at x/c =  0.7848   66
 Side 2  free  transition at x/c =  0.8377   71

   2   rms: 0.8695E-03   max: -.5389E-02   D at   73  2
       a =  0.050      CL =  0.1406
      Cm = -0.0534     CD =  0.03087   =>   CDf =  0.00729    CDp =  0.02359

 Side 1  free  transition at x/c =  0.7848   66
 Side 2  free  transition at x/c =  0.8378   71

   3   rms: 0.2060E-04   max: 0.9280E-04   T at   71  2
       a =  0.050      CL =  0.1406
      Cm = -0.0534     CD =  0.03087   =>   CDf =  0.00729    CDp =  0.02358
 plradd ia,ip,cpol            2          79  0.26027939    

 Point added to stored polar  1
 Save file unspecified or not available
 Dump file unspecified or not available

.OPERva   c>  
.OPERva   c>  
.OPERva   c>   Calculating wake trajectory ...
 Calculating source influence matrix ...

 Solving BL system ...

 Side 1  free  transition at x/c =  0.7848   66
 Side 2  free  transition at x/c =  0.8378   71

   1   rms: 0.1036E-01   max: -.5848E-01   D at    3  1
       a =  0.100      CL =  0.1468
      Cm = -0.0534     CD =  0.03080   =>   CDf =  0.00729    CDp =  0.02352

 Side 1  free  transition at x/c =  0.7838   66
 Side 2  free  transition at x/c =  0.8397   71

   2   rms: 0.6747E-03   max: -.3445E-02   D at   73  2
       a =  0.100      CL =  0.1472
      Cm = -0.0535     CD =  0.03081   =>   CDf =  0.00730    CDp =  0.02351

 Side 1  free  transition at x/c =  0.7839   66
 Side 2  free  transition at x/c =  0.8397   71

   3   rms: 0.1593E-04   max: 0.7828E-04   T at   71  2
       a =  0.100      CL =  0.1472
      Cm = -0.0535     CD =  0.03081   =>   CDf =  0.00730    CDp =  0.02351
 plradd ia,ip,cpol            3          79  0.26027939    

 Point added to stored polar  1
 Save file unspecified or not available
 Dump file unspecified or not available

.OPERva   c>  
.OPERva   c>  
.OPERva   c>   Calculating wake trajectory ...
 Calculating source influence matrix ...

 Solving BL system ...

 Side 1  free  transition at x/c =  0.7839   66
 Side 2  free  transition at x/c =  0.8397   71

   1   rms: 0.1141E-01   max: -.4281E-01   T at   71  2
       a =  0.150      CL =  0.1543
      Cm = -0.0535     CD =  0.03072   =>   CDf =  0.00730    CDp =  0.02342

 Side 1  free  transition at x/c =  0.7830   66
 Side 2  free  transition at x/c =  0.8418   71

   2   rms: 0.8706E-03   max: -.6513E-02   D at   73  2
       a =  0.150      CL =  0.1548
      Cm = -0.0536     CD =  0.03073   =>   CDf =  0.00731    CDp =  0.02342

 Side 1  free  transition at x/c =  0.7830   66
 Side 2  free  transition at x/c =  0.8419   71

   3   rms: 0.1623E-04   max: 0.1081E-03   D at   89  2
       a =  0.150      CL =  0.1548
      Cm = -0.0536     CD =  0.03072   =>   CDf =  0.00731    CDp =  0.02341
 plradd ia,ip,cpol            4          79  0.26027939    

 Point added to stored polar  1
 Save file unspecified or not available
 Dump file unspecified or not available

.OPERva   c>  
.OPERva   c>  
.OPERva   c>   Calculating wake trajectory ...
 Calculating source influence matrix ...

 Solving BL system ...

 Side 1  free  transition at x/c =  0.7830   66
 Side 2  free  transition at x/c =  0.8419   71

   1   rms: 0.1036E-01   max: -.3973E-01   T at   71  2
       a =  0.200      CL =  0.1626
      Cm = -0.0539     CD =  0.03064   =>   CDf =  0.00731    CDp =  0.02333

 Side 1  free  transition at x/c =  0.7822   66
 Side 2  free  transition at x/c =  0.8441   71

   2   rms: 0.5894E-03   max: -.3057E-02   D at   73  2
       a =  0.200      CL =  0.1630
      Cm = -0.0539     CD =  0.03064   =>   CDf =  0.00733    CDp =  0.02332

 Side 1  free  transition at x/c =  0.7823   66
 Side 2  free  transition at x/c =  0.8441   71

   3   rms: 0.1046E-04   max: 0.6570E-04   T at   71  2
       a =  0.200      CL =  0.1630
      Cm = -0.0539     CD =  0.03064   =>   CDf =  0.00733    CDp =  0.02332
 plradd ia,ip,cpol            5          79  0.26027939    

 Point added to stored polar  1
 Save file unspecified or not available
 Dump file unspecified or not available

.OPERva   c>  
.OPERva   c>  
.OPERva   c>   Calculating wake trajectory ...
 Calculating source influence matrix ...

 Solving BL system ...

 Side 1  free  transition at x/c =  0.7823   66
 Side 2  free  transition at x/c =  0.8441   71

   1   rms: 0.1240E-01   max: -.1052E+00   D at    4  1
       a =  0.250      CL =  0.1716
      Cm = -0.0544     CD =  0.03055   =>   CDf =  0.00733    CDp =  0.02322

 Side 1  free  transition at x/c =  0.7816   66
 Side 2  free  transition at x/c =  0.8463   71

   2   rms: 0.4892E-03   max: -.4722E-02   D at   74  2
       a =  0.250      CL =  0.1717
      Cm = -0.0544     CD =  0.03056   =>   CDf =  0.00735    CDp =  0.02321

 Side 1  free  transition at x/c =  0.7816   66
 Side 2  free  transition at x/c =  0.8463   71

   3   rms: 0.1158E-04   max: 0.9020E-04   D at   89  2
       a =  0.250      CL =  0.1717
      Cm = -0.0544     CD =  0.03056   =>   CDf =  0.00735    CDp =  0.02321
 plradd ia,ip,cpol            6          79  0.26027939    

 Point added to stored polar  1
 Save file unspecified or not available
 Dump file unspecified or not available

.OPERva   c>  
.OPERva   c>  
.OPERva   c>   Calculating wake trajectory ...
 Calculating source influence matrix ...

 Solving BL system ...

 Side 1  free  transition at x/c =  0.7816   66
 Side 2  free  transition at x/c =  0.8464   71

   1   rms: 0.1382E-01   max: 0.9941E-01   D at    4  1
       a =  0.300      CL =  0.1808
      Cm = -0.0549     CD =  0.03046   =>   CDf =  0.00735    CDp =  0.02312

 Side 1  free  transition at x/c =  0.7809   66
 Side 2  free  transition at x/c =  0.8487   71

   2   rms: 0.6741E-03   max: -.4701E-02   D at   74  2
       a =  0.300      CL =  0.1813
      Cm = -0.0550     CD =  0.03047   =>   CDf =  0.00737    CDp =  0.02310

 Side 1  free  transition at x/c =  0.7810   66
 Side 2  free  transition at x/c =  0.8487   71

   3   rms: 0.1234E-04   max: 0.8735E-04   D at   88  2
       a =  0.300      CL =  0.1813
      Cm = -0.0550     CD =  0.03047   =>   CDf =  0.00737    CDp =  0.02310
 plradd ia,ip,cpol            7          79  0.26027939    

 Point added to stored polar  1
 Save file unspecified or not available
 Dump file unspecified or not available

.OPERva   c>  
.OPERva   c>  
.OPERva   c>   Calculating wake trajectory ...
 Calculating source influence matrix ...

 Solving BL system ...

 Side 1  free  transition at x/c =  0.7810   66
 Side 2  free  transition at x/c =  0.8487   71

   1   rms: 0.1437E-01   max: 0.9587E-01   D at    4  2
       a =  0.350      CL =  0.1912
      Cm = -0.0558     CD =  0.03038   =>   CDf =  0.00737    CDp =  0.02300

 Side 1  free  transition at x/c =  0.7804   66
 Side 2  free  transition at x/c =  0.8509   72

   2   rms: 0.3021E-02   max: -.4484E-01   D at   71  2
       a =  0.350      CL =  0.1910
      Cm = -0.0557     CD =  0.03038   =>   CDf =  0.00740    CDp =  0.02299

 Side 1  free  transition at x/c =  0.7804   66
 Side 2  free  transition at x/c =  0.8509   72

   3   rms: 0.1330E-03   max: 0.1246E-02   D at   74  2
       a =  0.350      CL =  0.1910
      Cm = -0.0557     CD =  0.03038   =>   CDf =  0.00739    CDp =  0.02298

 Side 1  free  transition at x/c =  0.7804   66
 Side 2  free  transition at x/c =  0.8508   72

   4   rms: 0.2993E-05   max: -.2177E-04   D at   88  2
       a =  0.350      CL =  0.1910
      Cm = -0.0557     CD =  0.03038   =>   CDf =  0.00739    CDp =  0.02299
 plradd ia,ip,cpol            8          79  0.26027939    

 Point added to stored polar  1
 Save file unspecified or not available
 Dump file unspecified or not available

.OPERva   c>  
.OPERva   c>  
.OPERva   c>   Calculating wake trajectory ...
 Calculating source influence matrix ...

 Solving BL system ...

 Side 1  free  transition at x/c =  0.7804   66
 Side 2  free  transition at x/c =  0.8508   72

   1   rms: 0.1402E-01   max: -.1527E+00   D at    3  1
       a =  0.400      CL =  0.1985
      Cm = -0.0557     CD =  0.03024   =>   CDf =  0.00739    CDp =  0.02284

 Side 1  free  transition at x/c =  0.7799   66
 Side 2  free  transition at x/c =  0.8525   72

   2   rms: 0.7052E-03   max: -.5435E-02   D at   73  2
       a =  0.400      CL =  0.1989
      Cm = -0.0558     CD =  0.03026   =>   CDf =  0.00740    CDp =  0.02286

 Side 1  free  transition at x/c =  0.7799   66
 Side 2  free  transition at x/c =  0.8525   72

   3   rms: 0.1357E-04   max: 0.9080E-04   D at   89  2
       a =  0.400      CL =  0.1989
      Cm = -0.0558     CD =  0.03025   =>   CDf =  0.00740    CDp =  0.02285
 plradd ia,ip,cpol            9          79  0.26027939    

 Point added to stored polar  1
 Save file unspecified or not available
 Dump file unspecified or not available

.OPERva   c>  
.OPERva   c>  
.OPERva   c>   Calculating wake trajectory ...
 Calculating source influence matrix ...

 Solving BL system ...

 Side 1  free  transition at x/c =  0.7799   66
 Side 2  free  transition at x/c =  0.8525   72

   1   rms: 0.1239E-01   max: -.7663E-01   D at    4  2
       a =  0.450      CL =  0.2072
      Cm = -0.0560     CD =  0.03011   =>   CDf =  0.00740    CDp =  0.02271

 Side 1  free  transition at x/c =  0.7795   65
 Side 2  free  transition at x/c =  0.8543   72

   2   rms: 0.8245E-02   max: -.5494E-01   T at   65  1
       a =  0.450      CL =  0.2152
      Cm = -0.0570     CD =  0.02987   =>   CDf =  0.00739    CDp =  0.02248

 Side 1  free  transition at x/c =  0.7813   67
 Side 2  free  transition at x/c =  0.8542   71
 idif Ue xi dudx           1  0.12266567      2.03561783E-03   60.259674    
 Uenew xinew           2  2.70818430E-03  4.49419022E-05

   3   rms: 0.2021E-01   max: 0.8535E-01   D at   73  1
       a =  0.450      CL =  0.2068
      Cm = -0.0560     CD =  0.03020   =>   CDf =  0.00746    CDp =  0.02273

 Side 1  free  transition at x/c =  0.7793   65
 Side 2  free  transition at x/c =  0.8542   72

   4   rms: 0.1067E-01   max: -.9421E-01   T at    2  2
       a =  0.450      CL =  0.2155
      Cm = -0.0570     CD =  0.02986   =>   CDf =  0.00739    CDp =  0.02247

 Side 1  free  transition at x/c =  0.7813   67
 Side 2  free  transition at x/c =  0.8542   71
 idif Ue xi dudx           1  0.12271512      2.03561783E-03   60.283966    
 Uenew xinew           2  2.70927604E-03  4.49419022E-05

   5   rms: 0.2109E-01   max: 0.8873E-01   D at   73  1
       a =  0.450      CL =  0.2067
      Cm = -0.0560     CD =  0.03020   =>   CDf =  0.00747    CDp =  0.02274

 Side 1  free  transition at x/c =  0.7793   65
 Side 2  free  transition at x/c =  0.8542   72

   6   rms: 0.1100E-01   max: -.1012E+00   T at    2  2
       a =  0.450      CL =  0.2155
      Cm = -0.0570     CD =  0.02986   =>   CDf =  0.00739    CDp =  0.02247

 Side 1  free  transition at x/c =  0.7814   67
 Side 2  free  transition at x/c =  0.8542   71
 idif Ue xi dudx           1  0.12272493      2.03573704E-03   60.285255    
 Uenew xinew           2  2.71652057E-03  4.50611115E-05

   7   rms: 0.2121E-01   max: 0.8918E-01   D at   73  1
       a =  0.450      CL =  0.2067
      Cm = -0.0560     CD =  0.03020   =>   CDf =  0.00747    CDp =  0.02274

 Side 1  free  transition at x/c =  0.7793   65
 Side 2  free  transition at x/c =  0.8542   72

   8   rms: 0.1102E-01   max: -.1015E+00   T at    2  2
       a =  0.450      CL =  0.2155
      Cm = -0.0571     CD =  0.02986   =>   CDf =  0.00739    CDp =  0.02247

 Side 1  free  transition at x/c =  0.7814   67
 Side 2  free  transition at x/c =  0.8542   71
 idif Ue xi dudx           1  0.12272435      2.03573704E-03   60.284973    
 Uenew xinew           2  2.71650800E-03  4.50611115E-05

   9   rms: 0.2121E-01   max: 0.8920E-01   D at   73  1
       a =  0.450      CL =  0.2067
      Cm = -0.0560     CD =  0.03020   =>   CDf =  0.00747    CDp =  0.02274

 Side 1  free  transition at x/c =  0.7793   65
 Side 2  free  transition at x/c =  0.8542   72

  10   rms: 0.1102E-01   max: -.1014E+00   D at    2  2
       a =  0.450      CL =  0.2155
      Cm = -0.0571     CD =  0.02986   =>   CDf =  0.00739    CDp =  0.02247
 VISCAL:  Convergence failed

.OPERva   c>  
.OPERva   c>  
.OPERva   c>   Calculating wake trajectory ...
 Calculating source influence matrix ...

 Solving BL system ...

 Side 1  free  transition at x/c =  0.7814   67
 Side 2  free  transition at x/c =  0.8542   71

   1   rms: 0.2016E-01   max: 0.1016E+00   T at   67  1
       a =  0.500      CL =  0.2153
      Cm = -0.0562     CD =  0.03005   =>   CDf =  0.00743    CDp =  0.02262

 Side 1  free  transition at x/c =  0.7789   66
 Side 2  free  transition at x/c =  0.8560   71

   2   rms: 0.2132E-01   max: -.1383E+00   T at   66  1
       a =  0.500      CL =  0.2358
      Cm = -0.0588     CD =  0.02937   =>   CDf =  0.00743    CDp =  0.02195

 Side 1  free  transition at x/c =  0.7838   67
 Side 2  free  transition at x/c =  0.8560   71

   3   rms: 0.5068E-01   max: 0.2188E+00   D at   74  1
       a =  0.500      CL =  0.2099
      Cm = -0.0554     CD =  0.03025   =>   CDf =  0.00746    CDp =  0.02278

 Side 1  free  transition at x/c =  0.7782   66
 Side 2  free  transition at x/c =  0.8560   71

   4   rms: 0.3151E-01   max: -.1897E+00   T at   66  1
       a =  0.500      CL =  0.2402
      Cm = -0.0593     CD =  0.02920   =>   CDf =  0.00742    CDp =  0.02178

 Side 1  free  transition at x/c =  0.7852   67
 Side 2  free  transition at x/c =  0.8561   71

   5   rms: 0.6464E-01   max: 0.2806E+00   D at   73  1
       a =  0.500      CL =  0.2060
      Cm = -0.0549     CD =  0.03036   =>   CDf =  0.00747    CDp =  0.02289

 Side 1  free  transition at x/c =  0.7777   66
 Side 2  free  transition at x/c =  0.8560   71

   6   rms: 0.3952E-01   max: -.2306E+00   T at   66  1
       a =  0.500      CL =  0.2440
      Cm = -0.0598     CD =  0.02906   =>   CDf =  0.00742    CDp =  0.02165

 Side 1  free  transition at x/c =  0.7865   67
 Side 2  free  transition at x/c =  0.8561   71
 idif Ue xi dudx           1  0.12719147      2.00915337E-03   63.306004    
 Uenew xinew           2  1.16973289E-03  1.84774399E-05

   7   rms: 0.7733E-01   max: 0.3370E+00   D at   75  1
       a =  0.500      CL =  0.2020
      Cm = -0.0543     CD =  0.03049   =>   CDf =  0.00752    CDp =  0.02297

 Side 1  free  transition at x/c =  0.7772   65
 Side 2  free  transition at x/c =  0.8560   72

   8   rms: 0.9330E-01   max: -.1414E+01   D at    2  2   RLX: 0.354
       a =  0.500      CL =  0.2193
      Cm = -0.0568     CD =  0.02985   =>   CDf =  0.00739    CDp =  0.02246

 Side 1  free  transition at x/c =  0.7803   67
 Side 2  free  transition at x/c =  0.8560   71

   9   rms: 0.1485E-01   max: 0.8050E-01   D at   75  1
       a =  0.500      CL =  0.2161
      Cm = -0.0563     CD =  0.03005   =>   CDf =  0.00744    CDp =  0.02261

 Side 1  free  transition at x/c =  0.7790   66
 Side 2  free  transition at x/c =  0.8561   71

  10   rms: 0.1939E-01   max: -.1282E+00   T at   66  1
       a =  0.500      CL =  0.2349
      Cm = -0.0587     CD =  0.02940   =>   CDf =  0.00743    CDp =  0.02197
 VISCAL:  Convergence failed

.OPERva   c>  
.OPERva   c>  
.OPERva   c>   Calculating wake trajectory ...
 Calculating source influence matrix ...

 Solving BL system ...

 Side 1  free  transition at x/c =  0.7836   67
 Side 2  free  transition at x/c =  0.8560   71

   1   rms: 0.4475E-01   max: 0.2006E+00   T at   67  1
       a =  0.550      CL =  0.2193
      Cm = -0.0559     CD =  0.03010   =>   CDf =  0.00746    CDp =  0.02264

 Side 1  free  transition at x/c =  0.7778   66
 Side 2  free  transition at x/c =  0.8579   71

   2   rms: 0.4414E-01   max: -.2681E+00   T at   66  1
       a =  0.550      CL =  0.2616
      Cm = -0.0613     CD =  0.02867   =>   CDf =  0.00743    CDp =  0.02124

 Side 1  free  transition at x/c =  0.7883   67
 Side 2  free  transition at x/c =  0.8579   71

   3   rms: 0.1013E+00   max: 0.4451E+00   D at   74  1
       a =  0.550      CL =  0.2071
      Cm = -0.0541     CD =  0.03060   =>   CDf =  0.00751    CDp =  0.02309

 Side 1  free  transition at x/c =  0.7761   66
 Side 2  free  transition at x/c =  0.8578   71

   4   rms: 0.9564E-01   max: -.5202E+00   T at   66  1   RLX: 0.961
       a =  0.550      CL =  0.2916
      Cm = -0.0651     CD =  0.02763   =>   CDf =  0.00742    CDp =  0.02021

 Side 1  free  transition at x/c =  0.7976   68
 Side 2  free  transition at x/c =  0.8578   71

   5   rms: 0.7505E-01   max: 0.4205E+00   D at   68  1
       a =  0.550      CL =  0.2825
      Cm = -0.0648     CD =  0.02898   =>   CDf =  0.00758    CDp =  0.02140

 Side 1  free  transition at x/c =  0.7906   67
 Side 2  free  transition at x/c =  0.8569   71

   6   rms: 0.1495E+01   max: -.7984E+01   T at   67  1   RLX: 0.063
       a =  0.550      CL =  0.3732
      Cm = -0.0795     CD =  0.02384   =>   CDf =  0.00751    CDp =  0.01633

 Side 1  free  transition at x/c =  0.8146   70
 Side 2  free  transition at x/c =  0.8559   70

   7   rms: 0.1221E+00   max: 0.7283E+00   D at   70  1
       a =  0.550      CL =  0.3449
      Cm = -0.0743     CD =  0.02723   =>   CDf =  0.00771    CDp =  0.01952

 Side 1  free  transition at x/c =  0.8025   69
 Side 2  free  transition at x/c =  0.8560   70
 idif Ue xi dudx           2  0.34610900      4.94706631E-03   69.962479    
 Uenew xinew           3  0.21295808      3.04389000E-03

   8   rms: 0.3217E+00   max: 0.1514E+01   T at   69  1   RLX: 0.779
       a =  0.550      CL =  0.1379
      Cm = -0.0451     CD =  0.03169   =>   CDf =  0.00774    CDp =  0.02396

 Side 1  free  transition at x/c =  0.7698   65
 Side 2  free  transition at x/c =  0.8608   72

   9   rms: 0.4272E-01   max: -.4355E+00   D at   66  1
       a =  0.550      CL =  0.1720
      Cm = -0.0504     CD =  0.03168   =>   CDf =  0.00733    CDp =  0.02435

 Side 1  free  transition at x/c =  0.7657   65
 Side 2  free  transition at x/c =  0.8589   72

  10   rms: 0.1885E-01   max: -.9874E-01   T at   65  1
       a =  0.550      CL =  0.1817
      Cm = -0.0514     CD =  0.03097   =>   CDf =  0.00734    CDp =  0.02362
 VISCAL:  Convergence failed

.OPERva   c>  
.OPERva   c>  
.OPERva   c>   Calculating wake trajectory ...
 Calculating source influence matrix ...

 Solving BL system ...

 Side 1  free  transition at x/c =  0.7687   65
 Side 2  free  transition at x/c =  0.8589   72

   1   rms: 0.1407E-01   max: 0.1070E+00   D at    4  2   RLX: 0.999
       a =  0.600      CL =  0.1915
      Cm = -0.0519     CD =  0.03090   =>   CDf =  0.00736    CDp =  0.02354

 Side 1  free  transition at x/c =  0.7682   65
 Side 2  free  transition at x/c =  0.8609   72

   2   rms: 0.5326E-03   max: -.2257E-02   D at   74  2
       a =  0.600      CL =  0.1919
      Cm = -0.0520     CD =  0.03092   =>   CDf =  0.00738    CDp =  0.02354

 Side 1  free  transition at x/c =  0.7682   65
 Side 2  free  transition at x/c =  0.8608   72

   3   rms: 0.1024E-04   max: 0.4798E-04   T at   72  2
       a =  0.600      CL =  0.1919
      Cm = -0.0520     CD =  0.03092   =>   CDf =  0.00738    CDp =  0.02353
 plradd ia,ip,cpol           10          79  0.26027939    

 Point added to stored polar  1
 Save file unspecified or not available
 Dump file unspecified or not available

.OPERva   c>  
.OPERva   c>  
.OPERva   c>   Calculating wake trajectory ...
 Calculating source influence matrix ...

 Solving BL system ...

 Side 1  free  transition at x/c =  0.7682   65
 Side 2  free  transition at x/c =  0.8608   72

   1   rms: 0.1210E-01   max: 0.1117E+00   D at    3  2
       a =  0.650      CL =  0.1994
      Cm = -0.0523     CD =  0.03085   =>   CDf =  0.00738    CDp =  0.02346

 Side 1  free  transition at x/c =  0.7672   65
 Side 2  free  transition at x/c =  0.8630   72

   2   rms: 0.7549E-03   max: -.4337E-02   D at   74  2
       a =  0.650      CL =  0.1999
      Cm = -0.0524     CD =  0.03084   =>   CDf =  0.00740    CDp =  0.02345

 Side 1  free  transition at x/c =  0.7673   65
 Side 2  free  transition at x/c =  0.8631   72

   3   rms: 0.2309E-04   max: 0.2072E-03   D at    4  2
       a =  0.650      CL =  0.1999
      Cm = -0.0524     CD =  0.03084   =>   CDf =  0.00740    CDp =  0.02345
 plradd ia,ip,cpol           11          79  0.26027939    

 Point added to stored polar  1
 Save file unspecified or not available
 Dump file unspecified or not available

.OPERva   c>  
.OPERva   c>  
.OPERva   c>   Calculating wake trajectory ...
 Calculating source influence matrix ...

 Solving BL system ...

 Side 1  free  transition at x/c =  0.7673   65
 Side 2  free  transition at x/c =  0.8631   72

   1   rms: 0.1133E-01   max: -.8244E-01   D at    3  2
       a =  0.700      CL =  0.2086
      Cm = -0.0529     CD =  0.03075   =>   CDf =  0.00737    CDp =  0.02338

 Side 1  free  transition at x/c =  0.7664   66
 Side 2  free  transition at x/c =  0.8652   71

   2   rms: 0.9942E-03   max: 0.9146E-02   D at    3  2
       a =  0.700      CL =  0.2090
      Cm = -0.0529     CD =  0.03075   =>   CDf =  0.00742    CDp =  0.02333

 Side 1  free  transition at x/c =  0.7665   66
 Side 2  free  transition at x/c =  0.8653   71

   3   rms: 0.3582E-03   max: -.4609E-02   D at    4  1
       a =  0.700      CL =  0.2091
      Cm = -0.0529     CD =  0.03075   =>   CDf =  0.00742    CDp =  0.02333

 Side 1  free  transition at x/c =  0.7665   66
 Side 2  free  transition at x/c =  0.8653   71

   4   rms: 0.3011E-05   max: 0.2932E-04   D at    4  1
       a =  0.700      CL =  0.2091
      Cm = -0.0529     CD =  0.03075   =>   CDf =  0.00742    CDp =  0.02333
 plradd ia,ip,cpol           12          80  0.26027939    

 Point added to stored polar  1
 Save file unspecified or not available
 Dump file unspecified or not available

.OPERva   c>  
.OPERva   c>  
.OPERva   c>   Calculating wake trajectory ...
 Calculating source influence matrix ...

 Solving BL system ...

 Side 1  free  transition at x/c =  0.7665   66
 Side 2  free  transition at x/c =  0.8653   71

   1   rms: 0.1094E-01   max: -.3993E-01   T at   71  2
       a =  0.750      CL =  0.2183
      Cm = -0.0536     CD =  0.03067   =>   CDf =  0.00742    CDp =  0.02325

 Side 1  free  transition at x/c =  0.7657   66
 Side 2  free  transition at x/c =  0.8674   72

   2   rms: 0.3101E-02   max: -.5184E-01   D at   71  2
       a =  0.750      CL =  0.2177
      Cm = -0.0534     CD =  0.03067   =>   CDf =  0.00744    CDp =  0.02323

 Side 1  free  transition at x/c =  0.7657   66
 Side 2  free  transition at x/c =  0.8673   72

   3   rms: 0.1701E-03   max: 0.1857E-02   D at   74  2
       a =  0.750      CL =  0.2176
      Cm = -0.0534     CD =  0.03066   =>   CDf =  0.00744    CDp =  0.02323

 Side 1  free  transition at x/c =  0.7657   66
 Side 2  free  transition at x/c =  0.8672   72

   4   rms: 0.3514E-05   max: -.2577E-04   D at   89  2
       a =  0.750      CL =  0.2176
      Cm = -0.0534     CD =  0.03066   =>   CDf =  0.00744    CDp =  0.02323
 plradd ia,ip,cpol           13          80  0.26027939    

 Point added to stored polar  1
 Save file unspecified or not available
 Dump file unspecified or not available

.OPERva   c>  
.OPERva   c>  
.OPERva   c>   Calculating wake trajectory ...
 Calculating source influence matrix ...

 Solving BL system ...

 Side 1  free  transition at x/c =  0.7657   66
 Side 2  free  transition at x/c =  0.8672   72

   1   rms: 0.1055E-01   max: -.3988E-01   T at   72  2
       a =  0.800      CL =  0.2250
      Cm = -0.0534     CD =  0.03052   =>   CDf =  0.00744    CDp =  0.02308

 Side 1  free  transition at x/c =  0.7650   66
 Side 2  free  transition at x/c =  0.8689   72

   2   rms: 0.6722E-03   max: -.5187E-02   D at   73  2
       a =  0.800      CL =  0.2254
      Cm = -0.0535     CD =  0.03053   =>   CDf =  0.00744    CDp =  0.02309

 Side 1  free  transition at x/c =  0.7650   66
 Side 2  free  transition at x/c =  0.8689   72

   3   rms: 0.1281E-04   max: 0.6634E-04   D at   88  2
       a =  0.800      CL =  0.2254
      Cm = -0.0535     CD =  0.03053   =>   CDf =  0.00744    CDp =  0.02309
 plradd ia,ip,cpol           14          80  0.26027939    

 Point added to stored polar  1
 Save file unspecified or not available
 Dump file unspecified or not available

.OPERva   c>  
.OPERva   c>  
.OPERva   c>   Calculating wake trajectory ...
 Calculating source influence matrix ...

 Solving BL system ...

 Side 1  free  transition at x/c =  0.7650   66
 Side 2  free  transition at x/c =  0.8689   72

   1   rms: 0.1071E-01   max: -.3663E-01   T at   72  2
       a =  0.850      CL =  0.2330
      Cm = -0.0536     CD =  0.03041   =>   CDf =  0.00744    CDp =  0.02297

 Side 1  free  transition at x/c =  0.7644   66
 Side 2  free  transition at x/c =  0.8707   72

   2   rms: 0.4822E-03   max: -.3191E-02   D at   73  2
       a =  0.850      CL =  0.2333
      Cm = -0.0537     CD =  0.03042   =>   CDf =  0.00745    CDp =  0.02297

 Side 1  free  transition at x/c =  0.7644   66
 Side 2  free  transition at x/c =  0.8707   72

   3   rms: 0.1016E-04   max: 0.5078E-04   D at   74  2
       a =  0.850      CL =  0.2333
      Cm = -0.0537     CD =  0.03042   =>   CDf =  0.00745    CDp =  0.02297
 plradd ia,ip,cpol           15          80  0.26027939    

 Point added to stored polar  1
 Save file unspecified or not available
 Dump file unspecified or not available

.OPERva   c>  
.OPERva   c>  
.OPERva   c>   Calculating wake trajectory ...
 Calculating source influence matrix ...

 Solving BL system ...

 Side 1  free  transition at x/c =  0.7644   66
 Side 2  free  transition at x/c =  0.8707   72

   1   rms: 0.1214E-01   max: -.3437E-01   T at   72  2
       a =  0.900      CL =  0.2419
      Cm = -0.0539     CD =  0.03027   =>   CDf =  0.00745    CDp =  0.02282

 Side 1  free  transition at x/c =  0.7638   66
 Side 2  free  transition at x/c =  0.8725   72

   2   rms: 0.4972E-03   max: -.3272E-02   D at   73  2
       a =  0.900      CL =  0.2422
      Cm = -0.0540     CD =  0.03028   =>   CDf =  0.00746    CDp =  0.02282

 Side 1  free  transition at x/c =  0.7639   66
 Side 2  free  transition at x/c =  0.8725   72

   3   rms: 0.8058E-05   max: 0.4618E-04   D at   88  2
       a =  0.900      CL =  0.2422
      Cm = -0.0540     CD =  0.03028   =>   CDf =  0.00746    CDp =  0.02282
 plradd ia,ip,cpol           16          80  0.26027939    

 Point added to stored polar  1
 Save file unspecified or not available
 Dump file unspecified or not available

.OPERva   c>  
.OPERva   c>  
.OPERva   c>   Calculating wake trajectory ...
 Calculating source influence matrix ...

 Solving BL system ...

 Side 1  free  transition at x/c =  0.7639   66
 Side 2  free  transition at x/c =  0.8725   72

   1   rms: 0.1415E-01   max: 0.1237E+00   D at    3  1
       a =  0.950      CL =  0.2508
      Cm = -0.0543     CD =  0.03016   =>   CDf =  0.00746    CDp =  0.02269

 Side 1  free  transition at x/c =  0.7634   66
 Side 2  free  transition at x/c =  0.8743   72

   2   rms: 0.4494E-03   max: -.3004E-02   D at    3  1
       a =  0.950      CL =  0.2511
      Cm = -0.0544     CD =  0.03017   =>   CDf =  0.00748    CDp =  0.02269

 Side 1  free  transition at x/c =  0.7634   66
 Side 2  free  transition at x/c =  0.8743   72

   3   rms: 0.8419E-05   max: 0.4841E-04   D at   74  2
       a =  0.950      CL =  0.2511
      Cm = -0.0544     CD =  0.03016   =>   CDf =  0.00748    CDp =  0.02269
 plradd ia,ip,cpol           17          80  0.24501994    

 Point added to stored polar  1
 Save file unspecified or not available
 Dump file unspecified or not available

.OPERva   c>  
.OPERva   c>  
.OPERva   c>   Calculating wake trajectory ...
 Calculating source influence matrix ...

 Solving BL system ...

 Side 1  free  transition at x/c =  0.7634   66
 Side 2  free  transition at x/c =  0.8743   72

   1   rms: 0.1526E-01   max: -.1477E+00   D at    3  1
       a =  1.000      CL =  0.2605
      Cm = -0.0548     CD =  0.03002   =>   CDf =  0.00748    CDp =  0.02254

 Side 1  free  transition at x/c =  0.7630   65
 Side 2  free  transition at x/c =  0.8763   72

   2   rms: 0.2056E-02   max: -.1267E-01   T at   65  1
       a =  1.000      CL =  0.2625
      Cm = -0.0551     CD =  0.02996   =>   CDf =  0.00749    CDp =  0.02247

 Side 1  free  transition at x/c =  0.7634   66
 Side 2  free  transition at x/c =  0.8763   72

   3   rms: 0.6146E-02   max: 0.2490E-01   D at   65  1
       a =  1.000      CL =  0.2608
      Cm = -0.0549     CD =  0.03004   =>   CDf =  0.00749    CDp =  0.02255

 Side 1  free  transition at x/c =  0.7630   65
 Side 2  free  transition at x/c =  0.8763   72

   4   rms: 0.1821E-02   max: -.1229E-01   T at   65  1
       a =  1.000      CL =  0.2625
      Cm = -0.0551     CD =  0.02996   =>   CDf =  0.00749    CDp =  0.02247

 Side 1  free  transition at x/c =  0.7634   66
 Side 2  free  transition at x/c =  0.8763   72

   5   rms: 0.6116E-02   max: 0.2488E-01   D at   65  1
       a =  1.000      CL =  0.2608
      Cm = -0.0549     CD =  0.03004   =>   CDf =  0.00749    CDp =  0.02255

 Side 1  free  transition at x/c =  0.7630   65
 Side 2  free  transition at x/c =  0.8763   72

   6   rms: 0.1820E-02   max: -.1229E-01   T at   65  1
       a =  1.000      CL =  0.2625
      Cm = -0.0551     CD =  0.02996   =>   CDf =  0.00749    CDp =  0.02247

 Side 1  free  transition at x/c =  0.7634   66
 Side 2  free  transition at x/c =  0.8763   72

   7   rms: 0.6117E-02   max: 0.2488E-01   D at   65  1
       a =  1.000      CL =  0.2608
      Cm = -0.0549     CD =  0.03004   =>   CDf =  0.00749    CDp =  0.02255

 Side 1  free  transition at x/c =  0.7630   65
 Side 2  free  transition at x/c =  0.8763   72

   8   rms: 0.1820E-02   max: -.1229E-01   T at   65  1
       a =  1.000      CL =  0.2625
      Cm = -0.0551     CD =  0.02996   =>   CDf =  0.00749    CDp =  0.02247

 Side 1  free  transition at x/c =  0.7634   66
 Side 2  free  transition at x/c =  0.8763   72

   9   rms: 0.6116E-02   max: 0.2488E-01   D at   65  1
       a =  1.000      CL =  0.2608
      Cm = -0.0549     CD =  0.03004   =>   CDf =  0.00749    CDp =  0.02255

 Side 1  free  transition at x/c =  0.7630   65
 Side 2  free  transition at x/c =  0.8763   72

  10   rms: 0.1821E-02   max: -.1229E-01   T at   65  1
       a =  1.000      CL =  0.2625
      Cm = -0.0551     CD =  0.02996   =>   CDf =  0.00749    CDp =  0.02247
 VISCAL:  Convergence failed

.OPERva   c>  
.OPERva   c>  
.OPERva   c>   Calculating wake trajectory ...
 Calculating source influence matrix ...

 Solving BL system ...

 Side 1  free  transition at x/c =  0.7634   66
 Side 2  free  transition at x/c =  0.8763   72

   1   rms: 0.1459E-01   max: -.1237E+00   D at    4  1
       a =  1.050      CL =  0.2704
      Cm = -0.0554     CD =  0.02990   =>   CDf =  0.00749    CDp =  0.02240

 Side 1  free  transition at x/c =  0.7626   65
 Side 2  free  transition at x/c =  0.8781   72

   2   rms: 0.1001E-01   max: -.6486E-01   T at   65  1
       a =  1.050      CL =  0.2802
      Cm = -0.0566     CD =  0.02955   =>   CDf =  0.00751    CDp =  0.02205

 Side 1  free  transition at x/c =  0.7648   66
 Side 2  free  transition at x/c =  0.8779   72

   3   rms: 0.2499E-01   max: 0.1023E+00   D at   73  1
       a =  1.050      CL =  0.2692
      Cm = -0.0553     CD =  0.02998   =>   CDf =  0.00752    CDp =  0.02245

 Side 1  free  transition at x/c =  0.7625   65
 Side 2  free  transition at x/c =  0.8781   72

   4   rms: 0.1182E-01   max: -.7353E-01   T at   65  1
       a =  1.050      CL =  0.2806
      Cm = -0.0567     CD =  0.02953   =>   CDf =  0.00751    CDp =  0.02203

 Side 1  free  transition at x/c =  0.7649   66
 Side 2  free  transition at x/c =  0.8779   72

   5   rms: 0.8826E-01   max: -.1601E+01   D at    2  2   RLX: 0.312
       a =  1.050      CL =  0.2777
      Cm = -0.0567     CD =  0.02890   =>   CDf =  0.00752    CDp =  0.02138

 Side 1  free  transition at x/c =  0.7641   66
 Side 2  free  transition at x/c =  0.8780   72

   6   rms: 0.1657E-01   max: 0.6768E-01   D at   73  1
       a =  1.050      CL =  0.2701
      Cm = -0.0554     CD =  0.02995   =>   CDf =  0.00752    CDp =  0.02243

 Side 1  free  transition at x/c =  0.7626   65
 Side 2  free  transition at x/c =  0.8781   72

   7   rms: 0.1056E-01   max: -.6809E-01   T at   65  1
       a =  1.050      CL =  0.2804
      Cm = -0.0567     CD =  0.02955   =>   CDf =  0.00751    CDp =  0.02204

 Side 1  free  transition at x/c =  0.7649   66
 Side 2  free  transition at x/c =  0.8779   72

   8   rms: 0.2564E-01   max: 0.1041E+00   D at   73  1
       a =  1.050      CL =  0.2691
      Cm = -0.0553     CD =  0.02998   =>   CDf =  0.00752    CDp =  0.02246

 Side 1  free  transition at x/c =  0.7624   65
 Side 2  free  transition at x/c =  0.8781   72

   9   rms: 0.1212E-01   max: -.7394E-01   T at   65  1
       a =  1.050      CL =  0.2807
      Cm = -0.0567     CD =  0.02953   =>   CDf =  0.00751    CDp =  0.02203

 Side 1  free  transition at x/c =  0.7649   66
 Side 2  free  transition at x/c =  0.8779   72

  10   rms: 0.2637E+00   max: -.4732E+01   D at    2  2   RLX: 0.106
       a =  1.050      CL =  0.2803
      Cm = -0.0571     CD =  0.02857   =>   CDf =  0.00748    CDp =  0.02109
 VISCAL:  Convergence failed

.OPERva   c>  
.OPERva   c>  
.OPERva   c>   Calculating wake trajectory ...
 Calculating source influence matrix ...

 Solving BL system ...

 Side 1  free  transition at x/c =  0.7647   67
 Side 2  free  transition at x/c =  0.8779   71

   1   rms: 0.6203E-01   max: -.1035E+01   T at    2  1   RLX: 0.483
       a =  1.100      CL =  0.2800
      Cm = -0.0565     CD =  0.02917   =>   CDf =  0.00752    CDp =  0.02165

 Side 1  free  transition at x/c =  0.7633   67
 Side 2  free  transition at x/c =  0.8789   71

   2   rms: 0.1141E-01   max: -.9465E-01   D at    4  1
       a =  1.100      CL =  0.2811
      Cm = -0.0561     CD =  0.02977   =>   CDf =  0.00752    CDp =  0.02225

 Side 1  free  transition at x/c =  0.7623   66
 Side 2  free  transition at x/c =  0.8801   71

   3   rms: 0.1767E-01   max: -.1131E+00   T at   66  1
       a =  1.100      CL =  0.2983
      Cm = -0.0583     CD =  0.02914   =>   CDf =  0.00753    CDp =  0.02161

 Side 1  free  transition at x/c =  0.7664   67
 Side 2  free  transition at x/c =  0.8796   71

   4   rms: 0.4482E-01   max: 0.1864E+00   D at   74  1
       a =  1.100      CL =  0.2759
      Cm = -0.0554     CD =  0.02993   =>   CDf =  0.00755    CDp =  0.02238

 Side 1  free  transition at x/c =  0.7617   66
 Side 2  free  transition at x/c =  0.8801   71

   5   rms: 0.2556E-01   max: -.1487E+00   T at   66  1
       a =  1.100      CL =  0.3009
      Cm = -0.0586     CD =  0.02902   =>   CDf =  0.00752    CDp =  0.02150

 Side 1  free  transition at x/c =  0.7672   67
 Side 2  free  transition at x/c =  0.8796   71

   6   rms: 0.5291E-01   max: 0.2222E+00   D at   75  1
       a =  1.100      CL =  0.2738
      Cm = -0.0551     CD =  0.02999   =>   CDf =  0.00756    CDp =  0.02243

 Side 1  free  transition at x/c =  0.7615   66
 Side 2  free  transition at x/c =  0.8801   71

   7   rms: 0.2967E-01   max: -.1628E+00   T at   66  1
       a =  1.100      CL =  0.3017
      Cm = -0.0587     CD =  0.02898   =>   CDf =  0.00752    CDp =  0.02146

 Side 1  free  transition at x/c =  0.7674   67
 Side 2  free  transition at x/c =  0.8796   71
 idif Ue xi dudx           1  0.14153667      1.90889835E-03   74.145737    
 Uenew xinew           2  4.24265309E-04  5.72204590E-06

   8   rms: 0.5610E-01   max: 0.2357E+00   D at   75  1
       a =  1.100      CL =  0.2730
      Cm = -0.0549     CD =  0.03002   =>   CDf =  0.00762    CDp =  0.02240

 Side 1  free  transition at x/c =  0.7614   65
 Side 2  free  transition at x/c =  0.8802   72

   9   rms: 0.1566E+01   max: 0.2813E+02   T at    2  2   RLX: 0.046
       a =  1.100      CL =  0.2753
      Cm = -0.0557     CD =  0.02973   =>   CDf =  0.00752    CDp =  0.02221

 Side 1  free  transition at x/c =  0.7616   65
 Side 2  free  transition at x/c =  0.8802   72

  10   rms: 0.2852E-01   max: -.1509E+00   T at   65  1
       a =  1.100      CL =  0.3007
      Cm = -0.0585     CD =  0.02902   =>   CDf =  0.00748    CDp =  0.02154
 VISCAL:  Convergence failed

.OPERva   c>  
.OPERva   c>  
.OPERva   c>   Calculating wake trajectory ...
 Calculating source influence matrix ...

 Solving BL system ...

 Side 1  free  transition at x/c =  0.7672   67
 Side 2  free  transition at x/c =  0.8796   71

   1   rms: 0.4854E-01   max: 0.2100E+00   T at   67  1
       a =  1.150      CL =  0.2839
      Cm = -0.0558     CD =  0.02987   =>   CDf =  0.00756    CDp =  0.02231

 Side 1  free  transition at x/c =  0.7610   66
 Side 2  free  transition at x/c =  0.8820   71

   2   rms: 0.3973E-01   max: -.2270E+00   T at   66  1
       a =  1.150      CL =  0.3224
      Cm = -0.0607     CD =  0.02849   =>   CDf =  0.00754    CDp =  0.02096

 Side 1  free  transition at x/c =  0.7699   67
 Side 2  free  transition at x/c =  0.8812   71

   3   rms: 0.8429E-01   max: 0.3604E+00   D at   74  1
       a =  1.150      CL =  0.2800
      Cm = -0.0553     CD =  0.03016   =>   CDf =  0.00760    CDp =  0.02257

 Side 1  free  transition at x/c =  0.7602   66
 Side 2  free  transition at x/c =  0.8822   71

   4   rms: 0.5217E-01   max: -.2920E+00   T at   66  1
       a =  1.150      CL =  0.3297
      Cm = -0.0616     CD =  0.02822   =>   CDf =  0.00753    CDp =  0.02069

 Side 1  free  transition at x/c =  0.7722   67
 Side 2  free  transition at x/c =  0.8812   71

   5   rms: 0.1069E+00   max: 0.4614E+00   D at   74  1
       a =  1.150      CL =  0.2767
      Cm = -0.0550     CD =  0.03044   =>   CDf =  0.00761    CDp =  0.02283

 Side 1  free  transition at x/c =  0.7594   66
 Side 2  free  transition at x/c =  0.8823   71

   6   rms: 0.6758E-01   max: -.3762E+00   T at   66  1
       a =  1.150      CL =  0.3405
      Cm = -0.0629     CD =  0.02785   =>   CDf =  0.00753    CDp =  0.02032

 Side 1  free  transition at x/c =  0.7756   67
 Side 2  free  transition at x/c =  0.8810   71

   7   rms: 0.1427E+00   max: 0.6206E+00   D at   73  1
       a =  1.150      CL =  0.2689
      Cm = -0.0540     CD =  0.03082   =>   CDf =  0.00763    CDp =  0.02319

 Side 1  free  transition at x/c =  0.7584   66
 Side 2  free  transition at x/c =  0.8824   71

   8   rms: 0.1097E+00   max: -.5913E+00   T at   66  1   RLX: 0.846
       a =  1.150      CL =  0.3563
      Cm = -0.0649     CD =  0.02727   =>   CDf =  0.00752    CDp =  0.01976

 Side 1  free  transition at x/c =  0.7806   68
 Side 2  free  transition at x/c =  0.8804   71

   9   rms: 0.7006E-01   max: 0.3734E+00   D at   68  1
       a =  1.150      CL =  0.3498
      Cm = -0.0649     CD =  0.02853   =>   CDf =  0.00767    CDp =  0.02086

 Side 1  free  transition at x/c =  0.7740   67
 Side 2  free  transition at x/c =  0.8794   71

  10   rms: 0.8987E+00   max: -.4669E+01   T at   67  1   RLX: 0.107
       a =  1.150      CL =  0.4414
      Cm = -0.0795     CD =  0.02322   =>   CDf =  0.00757    CDp =  0.01564
 VISCAL:  Convergence failed

.OPERva   c>  
.OPERva   c>  
.OPERva   c>   Calculating wake trajectory ...
 Calculating source influence matrix ...

 Solving BL system ...

 Side 1  free  transition at x/c =  0.7985   70
 Side 2  free  transition at x/c =  0.8768   70

   1   rms: 0.1165E+00   max: 0.7228E+00   D at   70  1
       a =  1.200      CL =  0.4290
      Cm = -0.0760     CD =  0.02618   =>   CDf =  0.00778    CDp =  0.01840

 MRCHDU: Convergence failed at  82  side 1    Res =  0.4781E+01
 MRCHDU: Convergence failed at  83  side 1    Res =  0.2530E+01
 Side 1  free  transition at x/c =  0.7862   69
 Side 2  free  transition at x/c =  0.8786   70
 idif Ue xi dudx           2  0.32675618      3.96859646E-03   82.335449    
 Uenew xinew           3  0.17469005      2.12168694E-03

   2   rms: 0.3177E+00   max: 0.1465E+01   T at   69  1   RLX: 0.725
       a =  1.200      CL =  0.2527
      Cm = -0.0537     CD =  0.02963   =>   CDf =  0.00787    CDp =  0.02176

 Side 1  free  transition at x/c =  0.7547   65
 Side 2  free  transition at x/c =  0.8886   73

   3   rms: 0.8600E-01   max: 0.7278E+00   D at    2  2
       a =  1.200      CL =  0.1911
      Cm = -0.0442     CD =  0.03346   =>   CDf =  0.00749    CDp =  0.02597

 Side 1  free  transition at x/c =  0.7395   64
 Side 2  free  transition at x/c =  0.8865   73

   4   rms: 0.1296E+00   max: -.6762E+00   T at   64  1   RLX: 0.739
       a =  1.200      CL =  0.2726
      Cm = -0.0526     CD =  0.03086   =>   CDf =  0.00735    CDp =  0.02351

 Side 1  free  transition at x/c =  0.7604   66
 Side 2  free  transition at x/c =  0.8860   72
 idif Ue xi dudx           1  0.15869205      2.13742256E-03   74.244583    
 Uenew xinew           2  1.73915159E-02  2.34246254E-04

   5   rms: 0.7373E-01   max: 0.4006E+00   D at   66  1
       a =  1.200      CL =  0.2461
      Cm = -0.0507     CD =  0.03187   =>   CDf =  0.00760    CDp =  0.02427

 Side 1  free  transition at x/c =  0.7493   65
 Side 2  free  transition at x/c =  0.8847   73

   6   rms: 0.1215E-01   max: -.1297E+00   T at    2  2
       a =  1.200      CL =  0.2525
      Cm = -0.0514     CD =  0.03088   =>   CDf =  0.00746    CDp =  0.02341

 Side 1  free  transition at x/c =  0.7507   65
 Side 2  free  transition at x/c =  0.8853   73

   7   rms: 0.3591E-02   max: -.4403E-01   D at    4  2
       a =  1.200      CL =  0.2529
      Cm = -0.0515     CD =  0.03090   =>   CDf =  0.00747    CDp =  0.02342

 Side 1  free  transition at x/c =  0.7507   65
 Side 2  free  transition at x/c =  0.8853   73

   8   rms: 0.3160E-04   max: -.3528E-03   D at    7  2
       a =  1.200      CL =  0.2529
      Cm = -0.0515     CD =  0.03090   =>   CDf =  0.00747    CDp =  0.02342
 plradd ia,ip,cpol           18          80  0.24501994    

 Point added to stored polar  1
 Save file unspecified or not available
 Dump file unspecified or not available

.OPERva   c>  
.OPERva   c>  
.OPERva   c>   Calculating wake trajectory ...
 Calculating source influence matrix ...

 Solving BL system ...

 Side 1  free  transition at x/c =  0.7507   65
 Side 2  free  transition at x/c =  0.8852   73

   1   rms: 0.1487E-01   max: -.1230E+00   T at    3  2   RLX: 0.978
       a =  1.250      CL =  0.2599
      Cm = -0.0516     CD =  0.03081   =>   CDf =  0.00743    CDp =  0.02337

 Side 1  free  transition at x/c =  0.7499   66
 Side 2  free  transition at x/c =  0.8870   72

   2   rms: 0.1184E-01   max: -.1850E+00   D at    2  1
       a =  1.250      CL =  0.2603
      Cm = -0.0517     CD =  0.03080   =>   CDf =  0.00748    CDp =  0.02332

 Side 1  free  transition at x/c =  0.7499   66
 Side 2  free  transition at x/c =  0.8871   72

   3   rms: 0.1197E-02   max: 0.1558E-01   D at    4  1
       a =  1.250      CL =  0.2603
      Cm = -0.0517     CD =  0.03081   =>   CDf =  0.00748    CDp =  0.02332

 Side 1  free  transition at x/c =  0.7499   66
 Side 2  free  transition at x/c =  0.8871   72

   4   rms: 0.2750E-05   max: -.3519E-04   D at    8  1
       a =  1.250      CL =  0.2603
      Cm = -0.0517     CD =  0.03081   =>   CDf =  0.00748    CDp =  0.02332
 plradd ia,ip,cpol           19          81  0.24501994    

 Point added to stored polar  1
 Save file unspecified or not available
 Dump file unspecified or not available

.OPERva   c>  
.OPERva   c>  
.OPERva   c>   Calculating wake trajectory ...
 Calculating source influence matrix ...

 Solving BL system ...

 Side 1  free  transition at x/c =  0.7499   66
 Side 2  free  transition at x/c =  0.8871   72

   1   rms: 0.1526E-01   max: -.1209E+00   D at    3  1   RLX: 0.982
       a =  1.300      CL =  0.2683
      Cm = -0.0519     CD =  0.03069   =>   CDf =  0.00749    CDp =  0.02321

 Side 1  free  transition at x/c =  0.7492   66
 Side 2  free  transition at x/c =  0.8889   72

   2   rms: 0.4964E-03   max: -.3598E-02   D at    3  2
       a =  1.300      CL =  0.2685
      Cm = -0.0519     CD =  0.03070   =>   CDf =  0.00749    CDp =  0.02321

 Side 1  free  transition at x/c =  0.7492   66
 Side 2  free  transition at x/c =  0.8889   72

   3   rms: 0.6516E-05   max: 0.4847E-04   D at   74  2
       a =  1.300      CL =  0.2685
      Cm = -0.0519     CD =  0.03070   =>   CDf =  0.00749    CDp =  0.02321
 plradd ia,ip,cpol           20          81  0.24501994    

 Point added to stored polar  1
 Save file unspecified or not available
 Dump file unspecified or not available

.OPERva   c>  
.OPERva   c>  
.OPERva   c>   Calculating wake trajectory ...
 Calculating source influence matrix ...

 Solving BL system ...

 Side 1  free  transition at x/c =  0.7492   66
 Side 2  free  transition at x/c =  0.8889   72

   1   rms: 0.1219E-01   max: -.2782E-01   T at   72  2   RLX: 0.987
       a =  1.350      CL =  0.2771
      Cm = -0.0523     CD =  0.03057   =>   CDf =  0.00749    CDp =  0.02307

 Side 1  free  transition at x/c =  0.7485   66
 Side 2  free  transition at x/c =  0.8907   72

   2   rms: 0.6832E-03   max: -.2108E-02   D at   73  2
       a =  1.350      CL =  0.2776
      Cm = -0.0523     CD =  0.03056   =>   CDf =  0.00750    CDp =  0.02306

 Side 1  free  transition at x/c =  0.7485   66
 Side 2  free  transition at x/c =  0.8908   72

   3   rms: 0.1654E-04   max: 0.1084E-03   D at   74  2
       a =  1.350      CL =  0.2776
      Cm = -0.0523     CD =  0.03056   =>   CDf =  0.00751    CDp =  0.02306
 plradd ia,ip,cpol           21          81  0.24501994    

 Point added to stored polar  1
 Save file unspecified or not available
 Dump file unspecified or not available

.OPERva   c>  
.OPERva   c>  
.OPERva   c>   Calculating wake trajectory ...
 Calculating source influence matrix ...

 Solving BL system ...

 Side 1  free  transition at x/c =  0.7485   66
 Side 2  free  transition at x/c =  0.8908   72

   1   rms: 0.1322E-01   max: 0.1076E+00   D at    5  1   RLX: 0.994
       a =  1.400      CL =  0.2864
      Cm = -0.0527     CD =  0.03043   =>   CDf =  0.00751    CDp =  0.02292

 Side 1  free  transition at x/c =  0.7479   66
 Side 2  free  transition at x/c =  0.8928   72

   2   rms: 0.4679E-03   max: -.1602E-02   D at   74  2
       a =  1.400      CL =  0.2868
      Cm = -0.0528     CD =  0.03043   =>   CDf =  0.00752    CDp =  0.02292

 Side 1  free  transition at x/c =  0.7480   66
 Side 2  free  transition at x/c =  0.8928   72

   3   rms: 0.9683E-05   max: 0.7242E-04   D at   74  2
       a =  1.400      CL =  0.2868
      Cm = -0.0528     CD =  0.03043   =>   CDf =  0.00752    CDp =  0.02292
 plradd ia,ip,cpol           22          81  0.24501994    

 Point added to stored polar  1
 Save file unspecified or not available
 Dump file unspecified or not available

.OPERva   c>  
.OPERva   c>  
.OPERva   c>   Calculating wake trajectory ...
 Calculating source influence matrix ...

 Solving BL system ...

 Side 1  free  transition at x/c =  0.7480   66
 Side 2  free  transition at x/c =  0.8928   72

   1   rms: 0.1247E-01   max: 0.9432E-01   D at    3  1
       a =  1.450      CL =  0.2958
      Cm = -0.0532     CD =  0.03031   =>   CDf =  0.00752    CDp =  0.02279

 Side 1  free  transition at x/c =  0.7474   66
 Side 2  free  transition at x/c =  0.8948   72

   2   rms: 0.4247E-03   max: -.3083E-02   D at    3  1
       a =  1.450      CL =  0.2960
      Cm = -0.0533     CD =  0.03031   =>   CDf =  0.00753    CDp =  0.02278

 Side 1  free  transition at x/c =  0.7475   66
 Side 2  free  transition at x/c =  0.8947   72

   3   rms: 0.7302E-05   max: 0.5516E-04   D at   74  2
       a =  1.450      CL =  0.2960
      Cm = -0.0533     CD =  0.03031   =>   CDf =  0.00753    CDp =  0.02278
 plradd ia,ip,cpol           23          81  0.24501994    

 Point added to stored polar  1
 Save file unspecified or not available
 Dump file unspecified or not available

.OPERva   c>  
.OPERva   c>  
.OPERva   c>   Calculating wake trajectory ...
 Calculating source influence matrix ...

 Solving BL system ...

 Side 1  free  transition at x/c =  0.7475   66
 Side 2  free  transition at x/c =  0.8947   72

   1   rms: 0.1238E-01   max: -.2638E-01   T at   72  2
       a =  1.500      CL =  0.3059
      Cm = -0.0539     CD =  0.03016   =>   CDf =  0.00753    CDp =  0.02263

 Side 1  free  transition at x/c =  0.7470   66
 Side 2  free  transition at x/c =  0.8967   72

   2   rms: 0.3785E-03   max: -.1312E-02   D at   87  2
       a =  1.500      CL =  0.3062
      Cm = -0.0539     CD =  0.03016   =>   CDf =  0.00754    CDp =  0.02262

 Side 1  free  transition at x/c =  0.7470   66
 Side 2  free  transition at x/c =  0.8966   72

   3   rms: 0.8435E-05   max: 0.5859E-04   D at   74  2
       a =  1.500      CL =  0.3062
      Cm = -0.0539     CD =  0.03017   =>   CDf =  0.00754    CDp =  0.02262
 plradd ia,ip,cpol           24          81  0.24501994    

 Point added to stored polar  1
 Save file unspecified or not available
 Dump file unspecified or not available

.OPERva   c>  
.OPERva   c>  
.OPERva   c>   Calculating wake trajectory ...
 Calculating source influence matrix ...

 Solving BL system ...

 Side 1  free  transition at x/c =  0.7470   66
 Side 2  free  transition at x/c =  0.8966   72

   1   rms: 0.1215E-01   max: -.2824E-01   T at   72  2
       a =  1.550      CL =  0.3165
      Cm = -0.0545     CD =  0.03000   =>   CDf =  0.00754    CDp =  0.02246

 Side 1  free  transition at x/c =  0.7466   66
 Side 2  free  transition at x/c =  0.8984   73

   2   rms: 0.5385E-02   max: -.6997E-01   D at   72  2
       a =  1.550      CL =  0.3166
      Cm = -0.0546     CD =  0.03002   =>   CDf =  0.00756    CDp =  0.02246

 Side 1  free  transition at x/c =  0.7466   66
 Side 2  free  transition at x/c =  0.8986   73

   3   rms: 0.2333E-03   max: 0.2512E-02   D at   74  2
       a =  1.550      CL =  0.3166
      Cm = -0.0546     CD =  0.03001   =>   CDf =  0.00756    CDp =  0.02245

 Side 1  free  transition at x/c =  0.7466   66
 Side 2  free  transition at x/c =  0.8985   73

   4   rms: 0.2759E-05   max: -.2173E-04   D at   86  2
       a =  1.550      CL =  0.3166
      Cm = -0.0546     CD =  0.03001   =>   CDf =  0.00756    CDp =  0.02245
 plradd ia,ip,cpol           25          81  0.24501994    

 Point added to stored polar  1
 Save file unspecified or not available
 Dump file unspecified or not available

.OPERva   c>  
.OPERva   c>  
.OPERva   c>   Calculating wake trajectory ...
 Calculating source influence matrix ...

 Solving BL system ...

 Side 1  free  transition at x/c =  0.7466   66
 Side 2  free  transition at x/c =  0.8985   73

   1   rms: 0.1242E-01   max: -.3716E-01   T at   74  2
       a =  1.600      CL =  0.3259
      Cm = -0.0549     CD =  0.02981   =>   CDf =  0.00756    CDp =  0.02225

 Side 1  free  transition at x/c =  0.7463   65
 Side 2  free  transition at x/c =  0.9001   73

   2   rms: 0.3897E-02   max: -.2410E-01   T at   65  1
       a =  1.600      CL =  0.3298
      Cm = -0.0554     CD =  0.02969   =>   CDf =  0.00757    CDp =  0.02212

 Side 1  free  transition at x/c =  0.7471   66
 Side 2  free  transition at x/c =  0.9000   73

   3   rms: 0.1028E-01   max: 0.4066E-01   D at   73  1
       a =  1.600      CL =  0.3262
      Cm = -0.0550     CD =  0.02986   =>   CDf =  0.00757    CDp =  0.02229

 Side 1  free  transition at x/c =  0.7463   65
 Side 2  free  transition at x/c =  0.9001   73

   4   rms: 0.3761E-02   max: -.2454E-01   T at   65  1
       a =  1.600      CL =  0.3298
      Cm = -0.0554     CD =  0.02969   =>   CDf =  0.00757    CDp =  0.02212

 Side 1  free  transition at x/c =  0.7471   66
 Side 2  free  transition at x/c =  0.9000   73

   5   rms: 0.1030E-01   max: 0.4075E-01   D at   73  1
       a =  1.600      CL =  0.3262
      Cm = -0.0550     CD =  0.02986   =>   CDf =  0.00757    CDp =  0.02229

 Side 1  free  transition at x/c =  0.7463   65
 Side 2  free  transition at x/c =  0.9001   73

   6   rms: 0.3763E-02   max: -.2454E-01   T at   65  1
       a =  1.600      CL =  0.3298
      Cm = -0.0554     CD =  0.02969   =>   CDf =  0.00757    CDp =  0.02212

 Side 1  free  transition at x/c =  0.7471   66
 Side 2  free  transition at x/c =  0.9000   73

   7   rms: 0.1030E-01   max: 0.4075E-01   D at   73  1
       a =  1.600      CL =  0.3262
      Cm = -0.0550     CD =  0.02986   =>   CDf =  0.00757    CDp =  0.02229

 Side 1  free  transition at x/c =  0.7463   65
 Side 2  free  transition at x/c =  0.9001   73

   8   rms: 0.3764E-02   max: -.2455E-01   T at   65  1
       a =  1.600      CL =  0.3299
      Cm = -0.0554     CD =  0.02969   =>   CDf =  0.00757    CDp =  0.02212

 Side 1  free  transition at x/c =  0.7471   66
 Side 2  free  transition at x/c =  0.9000   73

   9   rms: 0.1030E-01   max: 0.4076E-01   D at   73  1
       a =  1.600      CL =  0.3262
      Cm = -0.0550     CD =  0.02986   =>   CDf =  0.00757    CDp =  0.02229

 Side 1  free  transition at x/c =  0.7463   65
 Side 2  free  transition at x/c =  0.9001   73

  10   rms: 0.3764E-02   max: -.2455E-01   T at   65  1
       a =  1.600      CL =  0.3299
      Cm = -0.0554     CD =  0.02969   =>   CDf =  0.00757    CDp =  0.02212
 VISCAL:  Convergence failed

.OPERva   c>  
.OPERva   c>  
.OPERva   c>   Calculating wake trajectory ...
 Calculating source influence matrix ...

 Solving BL system ...

 Side 1  free  transition at x/c =  0.7471   66
 Side 2  free  transition at x/c =  0.9000   73

   1   rms: 0.1751E-01   max: -.1478E+00   D at    3  1
       a =  1.650      CL =  0.3360
      Cm = -0.0554     CD =  0.02967   =>   CDf =  0.00757    CDp =  0.02210

 Side 1  free  transition at x/c =  0.7459   65
 Side 2  free  transition at x/c =  0.9017   73

   2   rms: 0.1097E-01   max: -.6873E-01   T at   65  1
       a =  1.650      CL =  0.3467
      Cm = -0.0567     CD =  0.02927   =>   CDf =  0.00757    CDp =  0.02169

 Side 1  free  transition at x/c =  0.7483   66
 Side 2  free  transition at x/c =  0.9013   73

   3   rms: 0.2698E-01   max: 0.1085E+00   D at   73  1
       a =  1.650      CL =  0.3346
      Cm = -0.0552     CD =  0.02974   =>   CDf =  0.00759    CDp =  0.02215

 Side 1  free  transition at x/c =  0.7458   65
 Side 2  free  transition at x/c =  0.9016   73

   4   rms: 0.1259E-01   max: -.7582E-01   T at   65  1
       a =  1.650      CL =  0.3470
      Cm = -0.0568     CD =  0.02925   =>   CDf =  0.00757    CDp =  0.02168

 Side 1  free  transition at x/c =  0.7484   66
 Side 2  free  transition at x/c =  0.9013   73

   5   rms: 0.2794E-01   max: 0.1124E+00   D at   73  1
       a =  1.650      CL =  0.3345
      Cm = -0.0552     CD =  0.02975   =>   CDf =  0.00759    CDp =  0.02216

 Side 1  free  transition at x/c =  0.7458   65
 Side 2  free  transition at x/c =  0.9017   73

   6   rms: 0.1280E-01   max: -.7662E-01   T at   65  1
       a =  1.650      CL =  0.3470
      Cm = -0.0568     CD =  0.02925   =>   CDf =  0.00757    CDp =  0.02167

 Side 1  free  transition at x/c =  0.7484   66
 Side 2  free  transition at x/c =  0.9013   73

   7   rms: 0.2805E-01   max: 0.1129E+00   D at   73  1
       a =  1.650      CL =  0.3345
      Cm = -0.0552     CD =  0.02975   =>   CDf =  0.00759    CDp =  0.02216

 Side 1  free  transition at x/c =  0.7458   65
 Side 2  free  transition at x/c =  0.9017   73

   8   rms: 0.1282E-01   max: -.7672E-01   T at   65  1
       a =  1.650      CL =  0.3470
      Cm = -0.0568     CD =  0.02925   =>   CDf =  0.00757    CDp =  0.02167

 Side 1  free  transition at x/c =  0.7484   66
 Side 2  free  transition at x/c =  0.9013   73

   9   rms: 0.2807E-01   max: 0.1129E+00   D at   73  1
       a =  1.650      CL =  0.3345
      Cm = -0.0552     CD =  0.02975   =>   CDf =  0.00759    CDp =  0.02216

 Side 1  free  transition at x/c =  0.7458   65
 Side 2  free  transition at x/c =  0.9017   73

  10   rms: 0.1283E-01   max: -.7672E-01   T at   65  1
       a =  1.650      CL =  0.3470
      Cm = -0.0568     CD =  0.02925   =>   CDf =  0.00757    CDp =  0.02167
 VISCAL:  Convergence failed

.OPERva   c>  
.OPERva   c>  
.OPERva   c>   Calculating wake trajectory ...
 Calculating source influence matrix ...

 Solving BL system ...

 Side 1  free  transition at x/c =  0.7484   66
 Side 2  free  transition at x/c =  0.9013   73

   1   rms: 0.2609E-01   max: 0.1196E+00   T at   66  1
       a =  1.700      CL =  0.3447
      Cm = -0.0558     CD =  0.02957   =>   CDf =  0.00759    CDp =  0.02198

 Side 1  free  transition at x/c =  0.7454   65
 Side 2  free  transition at x/c =  0.9033   73

   2   rms: 0.2153E-01   max: -.1281E+00   T at   65  1
       a =  1.700      CL =  0.3658
      Cm = -0.0584     CD =  0.02879   =>   CDf =  0.00752    CDp =  0.02127

 Side 1  free  transition at x/c =  0.7500   67
 Side 2  free  transition at x/c =  0.9026   72
 idif Ue xi dudx           1  0.17232116      2.02560425E-03   85.071480    
 Uenew xinew           2  1.52018247E-02  1.78694725E-04

   3   rms: 0.5051E-01   max: 0.2021E+00   D at   74  1
       a =  1.700      CL =  0.3414
      Cm = -0.0553     CD =  0.02971   =>   CDf =  0.00769    CDp =  0.02202

 Side 1  free  transition at x/c =  0.7450   65
 Side 2  free  transition at x/c =  0.9034   73

   4   rms: 0.2893E-01   max: -.2411E+00   D at    2  2
       a =  1.700      CL =  0.3664
      Cm = -0.0585     CD =  0.02874   =>   CDf =  0.00751    CDp =  0.02123

 Side 1  free  transition at x/c =  0.7503   67
 Side 2  free  transition at x/c =  0.9026   72
 idif Ue xi dudx           1  0.17251618      2.02798843E-03   85.067635    
 Uenew xinew           2  1.54039543E-02  1.81078911E-04

   5   rms: 0.5346E-01   max: 0.2311E+00   T at    2  1
       a =  1.700      CL =  0.3410
      Cm = -0.0552     CD =  0.02973   =>   CDf =  0.00769    CDp =  0.02203

 Side 1  free  transition at x/c =  0.7449   65
 Side 2  free  transition at x/c =  0.9034   73

   6   rms: 0.2996E-01   max: -.2553E+00   T at    2  2
       a =  1.700      CL =  0.3667
      Cm = -0.0585     CD =  0.02873   =>   CDf =  0.00751    CDp =  0.02122

 Side 1  free  transition at x/c =  0.7504   67
 Side 2  free  transition at x/c =  0.9026   72
 idif Ue xi dudx           1  0.17267977      2.03037262E-03   85.048317    
 Uenew xinew           2  1.56032275E-02  1.83463097E-04

   7   rms: 0.5423E-01   max: 0.2320E+00   D at    2  1
       a =  1.700      CL =  0.3408
      Cm = -0.0552     CD =  0.02974   =>   CDf =  0.00769    CDp =  0.02204

 Side 1  free  transition at x/c =  0.7449   65
 Side 2  free  transition at x/c =  0.9034   73

   8   rms: 0.3017E-01   max: -.2544E+00   T at    2  2
       a =  1.700      CL =  0.3668
      Cm = -0.0585     CD =  0.02873   =>   CDf =  0.00751    CDp =  0.02121

 Side 1  free  transition at x/c =  0.7504   67
 Side 2  free  transition at x/c =  0.9026   72
 idif Ue xi dudx           1  0.17275140      2.03132629E-03   85.043648    
 Uenew xinew           2  1.56834740E-02  1.84416771E-04

   9   rms: 0.5450E-01   max: 0.2317E+00   D at    2  1
       a =  1.700      CL =  0.3408
      Cm = -0.0552     CD =  0.02974   =>   CDf =  0.00769    CDp =  0.02204

 Side 1  free  transition at x/c =  0.7449   65
 Side 2  free  transition at x/c =  0.9035   73

  10   rms: 0.3025E-01   max: -.2538E+00   T at    2  2
       a =  1.700      CL =  0.3668
      Cm = -0.0585     CD =  0.02872   =>   CDf =  0.00751    CDp =  0.02121
 VISCAL:  Convergence failed

.OPERva   c>  
.OPERva   c>  
.OPERva   c>   Calculating wake trajectory ...
 Calculating source influence matrix ...

 Solving BL system ...

 Side 1  free  transition at x/c =  0.7504   67
 Side 2  free  transition at x/c =  0.9026   72

   1   rms: 0.4854E-01   max: 0.2038E+00   T at   67  1
       a =  1.750      CL =  0.3505
      Cm = -0.0557     CD =  0.02960   =>   CDf =  0.00761    CDp =  0.02199

 Side 1  free  transition at x/c =  0.7444   66
 Side 2  free  transition at x/c =  0.9052   72

   2   rms: 0.3795E-01   max: -.2109E+00   T at   66  1
       a =  1.750      CL =  0.3875
      Cm = -0.0605     CD =  0.02823   =>   CDf =  0.00758    CDp =  0.02065

 Side 1  free  transition at x/c =  0.7527   67
 Side 2  free  transition at x/c =  0.9038   72

   3   rms: 0.8010E-01   max: 0.3321E+00   D at   73  1
       a =  1.750      CL =  0.3492
      Cm = -0.0557     CD =  0.02984   =>   CDf =  0.00764    CDp =  0.02220

 Side 1  free  transition at x/c =  0.7438   66
 Side 2  free  transition at x/c =  0.9053   72

   4   rms: 0.4444E-01   max: -.2488E+00   T at   66  1
       a =  1.750      CL =  0.3918
      Cm = -0.0610     CD =  0.02811   =>   CDf =  0.00758    CDp =  0.02053

 Side 1  free  transition at x/c =  0.7539   67
 Side 2  free  transition at x/c =  0.9036   72

   5   rms: 0.9293E-01   max: 0.3868E+00   D at   73  1
       a =  1.750      CL =  0.3465
      Cm = -0.0554     CD =  0.02996   =>   CDf =  0.00765    CDp =  0.02232

 Side 1  free  transition at x/c =  0.7434   66
 Side 2  free  transition at x/c =  0.9054   72

   6   rms: 0.5173E-01   max: -.2830E+00   T at   66  1
       a =  1.750      CL =  0.3956
      Cm = -0.0615     CD =  0.02796   =>   CDf =  0.00758    CDp =  0.02038

 Side 1  free  transition at x/c =  0.7551   67
 Side 2  free  transition at x/c =  0.9035   72
 idif Ue xi dudx           1  0.16668770      1.85775757E-03   89.725212    
 Uenew xinew           2  9.73343151E-04  1.08480453E-05

   7   rms: 0.1055E+00   max: 0.4403E+00   D at   73  1
       a =  1.750      CL =  0.3437
      Cm = -0.0550     CD =  0.03009   =>   CDf =  0.00774    CDp =  0.02235

 Side 1  free  transition at x/c =  0.7429   65
 Side 2  free  transition at x/c =  0.9055   73

   8   rms: 0.1519E+01   max: -.2708E+02   T at    2  2   RLX: 0.018
       a =  1.750      CL =  0.3465
      Cm = -0.0562     CD =  0.02947   =>   CDf =  0.00751    CDp =  0.02196

 Side 1  free  transition at x/c =  0.7431   66
 Side 2  free  transition at x/c =  0.9055   72

   9   rms: 0.1983E+00   max: -.3379E+01   D at    2  1   RLX: 0.148
       a =  1.750      CL =  0.3540
      Cm = -0.0570     CD =  0.02925   =>   CDf =  0.00758    CDp =  0.02167

 Side 1  free  transition at x/c =  0.7447   66
 Side 2  free  transition at x/c =  0.9052   72

  10   rms: 0.3170E-01   max: -.1681E+00   T at   66  1
       a =  1.750      CL =  0.3828
      Cm = -0.0600     CD =  0.02848   =>   CDf =  0.00759    CDp =  0.02089
 VISCAL:  Convergence failed

.OPERva   c>  
.OPERva   c>  
.OPERva   c>   Calculating wake trajectory ...
 Calculating source influence matrix ...

 Solving BL system ...

 Side 1  free  transition at x/c =  0.7511   67
 Side 2  free  transition at x/c =  0.9040   72

   1   rms: 0.5938E-01   max: 0.2470E+00   D at   73  1
       a =  1.800      CL =  0.3621
      Cm = -0.0567     CD =  0.02952   =>   CDf =  0.00763    CDp =  0.02189

 Side 1  free  transition at x/c =  0.7438   66
 Side 2  free  transition at x/c =  0.9069   72

   2   rms: 0.5210E-01   max: -.2882E+00   T at   66  1
       a =  1.800      CL =  0.4127
      Cm = -0.0631     CD =  0.02769   =>   CDf =  0.00759    CDp =  0.02009

 Side 1  free  transition at x/c =  0.7558   67
 Side 2  free  transition at x/c =  0.9048   72

   3   rms: 0.1190E+00   max: 0.4916E+00   D at   72  1
       a =  1.800      CL =  0.3527
      Cm = -0.0555     CD =  0.02993   =>   CDf =  0.00767    CDp =  0.02226

 Side 1  free  transition at x/c =  0.7422   66
 Side 2  free  transition at x/c =  0.9075   72

   4   rms: 0.8531E-01   max: -.4485E+00   T at   66  1
       a =  1.800      CL =  0.4340
      Cm = -0.0657     CD =  0.02690   =>   CDf =  0.00758    CDp =  0.01932

 Side 1  free  transition at x/c =  0.7622   67
 Side 2  free  transition at x/c =  0.9042   72

   5   rms: 0.1622E+00   max: -.8068E+00   T at   67  1   RLX: 0.620
       a =  1.800      CL =  0.5347
      Cm = -0.0810     CD =  0.02282   =>   CDf =  0.00764    CDp =  0.01518

 MRCHDU: Convergence failed at  71  side 1    Res =  0.3952E+03
 MRCHDU: Convergence failed at  72  side 1    Res =  0.2090E+01
 MRCHDU: Convergence failed at  73  side 1    Res =  0.5571E+01
 MRCHDU: Convergence failed at  74  side 1    Res =  0.3136E+02
 MRCHDU: Convergence failed at  75  side 1    Res =  0.8137E+01
 MRCHDU: Convergence failed at  76  side 1    Res =  0.7382E+01
 MRCHDU: Convergence failed at  77  side 1    Res =  0.8719E+01
 MRCHDU: Convergence failed at  78  side 1    Res =  0.1132E+02
 MRCHDU: Convergence failed at  79  side 1    Res =  0.1576E+02
 MRCHDU: Convergence failed at  80  side 1    Res =  0.2565E+02
 MRCHDU: Convergence failed at  81  side 1    Res =  0.7148E+02
 MRCHDU: Convergence failed at  82  side 1    Res =  0.1001E+03
 MRCHDU: Convergence failed at  83  side 1    Res =  0.2876E+02
 MRCHDU: Convergence failed at  84  side 1    Res =  0.1750E+02
 Side 1  free  transition at x/c =  0.7879   70
 Side 2  free  transition at x/c =  0.8989   71
 idif Ue xi dudx           1  0.25239462      3.05175781E-03   82.704666    
 Uenew xinew           2  9.93310809E-02  1.20103359E-03

   6   rms: 0.4868E+00   max: 0.3059E+01   D at   84  1   RLX: 0.490
       a =  1.800      CL =  0.4501
      Cm = -0.0918     CD =  0.01224   =>   CDf =  0.00779    CDp =  0.00445

 Side 1  free  transition at x/c =  0.7708   68
 Side 2  free  transition at x/c =  0.9089   72

   7   rms: 0.2116E+00   max: 0.5361E+00   T at   80  2   RLX: 0.888
       a =  1.800      CL =  0.6018
      Cm = -0.0977     CD =  0.02071   =>   CDf =  0.00793    CDp =  0.01278

 MRCHDU: Convergence failed at  80  side 1    Res =  0.1605E+01
 MRCHDU: Convergence failed at  81  side 1    Res =  0.1521E+01
 MRCHDU: Convergence failed at  82  side 1    Res =  0.2098E+01
 MRCHDU: Convergence failed at  83  side 1    Res =  0.2960E+01
 MRCHDU: Convergence failed at  84  side 1    Res =  0.6982E+01
 Side 1  free  transition at x/c =  0.7801   70
 Side 2  free  transition at x/c =  0.9017   71
 idif Ue xi dudx           1  0.16094367      1.85918808E-03   86.566643    
 Uenew xinew           2  7.32687884E-04  8.46385956E-06

   8   rms: 0.1520E+00   max: 0.6743E+00   D at   84  1
       a =  1.800      CL =  0.4921
      Cm = -0.0756     CD =  0.02366   =>   CDf =  0.00793    CDp =  0.01573

 MRCHDU: Convergence failed at  83  side 1    Res =  0.4220E+03
 Side 1  free  transition at x/c =  0.7680   68
 Side 2  free  transition at x/c =  0.9002   72

   9   rms: 0.1652E+01   max: 0.2914E+02   T at    2  2   RLX: 0.043
       a =  1.800      CL =  0.4953
      Cm = -0.0824     CD =  0.02195   =>   CDf =  0.00773    CDp =  0.01423

 Side 1  free  transition at x/c =  0.7658   68
 Side 2  free  transition at x/c =  0.9006   72

  10   rms: 0.1519E+00   max: 0.6619E+00   T at   68  1
       a =  1.800      CL =  0.3707
      Cm = -0.0577     CD =  0.02901   =>   CDf =  0.00772    CDp =  0.02129
 VISCAL:  Convergence failed

.OPERva   c>  
.OPERva   c>  
.OPERva   c>   Calculating wake trajectory ...
 Calculating source influence matrix ...

 Solving BL system ...

 Side 1  free  transition at x/c =  0.7466   67
 Side 2  free  transition at x/c =  0.9072   72

   1   rms: 0.3593E-01   max: -.3008E+00   D at   67  1
       a =  1.850      CL =  0.3626
      Cm = -0.0560     CD =  0.02992   =>   CDf =  0.00762    CDp =  0.02231

 Side 1  free  transition at x/c =  0.7414   66
 Side 2  free  transition at x/c =  0.9089   72

   2   rms: 0.1007E+00   max: -.5380E+00   T at   66  1   RLX: 0.929
       a =  1.850      CL =  0.4536
      Cm = -0.0676     CD =  0.02630   =>   CDf =  0.00759    CDp =  0.01871

 Side 1  free  transition at x/c =  0.7644   68
 Side 2  free  transition at x/c =  0.9052   72

   3   rms: 0.7918E-01   max: 0.4015E+00   D at   68  1
       a =  1.850      CL =  0.4399
      Cm = -0.0666     CD =  0.02754   =>   CDf =  0.00773    CDp =  0.01981

 Side 1  free  transition at x/c =  0.7566   67
 Side 2  free  transition at x/c =  0.9045   72

   4   rms: 0.4564E+01   max: -.2181E+02   T at   67  1   RLX: 0.023
       a =  1.850      CL =  0.5384
      Cm = -0.0832     CD =  0.02170   =>   CDf =  0.00761    CDp =  0.01409

 Side 1  free  transition at x/c =  0.7820   70
 Side 2  free  transition at x/c =  0.8999   71

   5   rms: 0.1190E+00   max: 0.7849E+00   D at   71  1
       a =  1.850      CL =  0.5183
      Cm = -0.0786     CD =  0.02492   =>   CDf =  0.00782    CDp =  0.01710

 MRCHDU: Convergence failed at  81  side 1    Res =  0.2369E+01
 MRCHDU: Convergence failed at  82  side 1    Res =  0.2663E+01
 MRCHDU: Convergence failed at  83  side 1    Res =  0.3669E+01
 MRCHDU: Convergence failed at  84  side 1    Res =  0.7929E+01
 Side 1  free  transition at x/c =  0.7703   69
 Side 2  free  transition at x/c =  0.9005   71
 idif Ue xi dudx           2  0.33475679      3.99005413E-03   83.897804    
 Uenew xinew           3  0.17948508      2.13932991E-03

   6   rms: 0.3275E+00   max: 0.1463E+01   T at   69  1   RLX: 0.844
       a =  1.850      CL =  0.3253
      Cm = -0.0552     CD =  0.02913   =>   CDf =  0.00796    CDp =  0.02118

 Side 1  free  transition at x/c =  0.7332   65
 Side 2  free  transition at x/c =  0.9152   74

   7   rms: 0.3157E-01   max: -.4416E+00   D at   66  1
       a =  1.850      CL =  0.3106
      Cm = -0.0503     CD =  0.03181   =>   CDf =  0.00753    CDp =  0.02428

 Side 1  free  transition at x/c =  0.7289   64
 Side 2  free  transition at x/c =  0.9130   73

   8   rms: 0.4223E-01   max: 0.2807E+00   T at   64  1
       a =  1.850      CL =  0.2732
      Cm = -0.0464     CD =  0.03274   =>   CDf =  0.00752    CDp =  0.02521

 Side 1  free  transition at x/c =  0.7211   64
 Side 2  free  transition at x/c =  0.9155   74

   9   rms: 0.4191E-01   max: -.1856E+00   T at   64  1
       a =  1.850      CL =  0.3024
      Cm = -0.0493     CD =  0.03152   =>   CDf =  0.00748    CDp =  0.02404

[...]

   7   rms: 0.9336E-01   max: 0.3743E+00   D at   72  1
       a =  2.350      CL =  0.4231
      Cm = -0.0572     CD =  0.02944   =>   CDf =  0.00778    CDp =  0.02166

 Side 1  free  transition at x/c =  0.7270   65
 Side 2  free  transition at x/c =  0.9325   74

   8   rms: 0.4884E-01   max: -.2520E+00   T at   65  1
       a =  2.350      CL =  0.4689
      Cm = -0.0627     CD =  0.02763   =>   CDf =  0.00752    CDp =  0.02011

 Side 1  free  transition at x/c =  0.7376   67
 Side 2  free  transition at x/c =  0.9286   72
 idif Ue xi dudx           1  0.16923212      2.15542316E-03   78.514565    
 Uenew xinew           2  2.39233058E-02  3.04698944E-04

   9   rms: 0.9763E-01   max: 0.3925E+00   D at   72  1
       a =  2.350      CL =  0.4222
      Cm = -0.0571     CD =  0.02947   =>   CDf =  0.00778    CDp =  0.02169

 Side 1  free  transition at x/c =  0.7269   65
 Side 2  free  transition at x/c =  0.9326   74

  10   rms: 0.5097E-01   max: -.2613E+00   T at   65  1
       a =  2.350      CL =  0.4700
      Cm = -0.0629     CD =  0.02759   =>   CDf =  0.00752    CDp =  0.02007
 VISCAL:  Convergence failed

.OPERva   c>  
.OPERva   c>  
.OPERva   c>   Calculating wake trajectory ...
 Calculating source influence matrix ...

 Solving BL system ...

 Side 1  free  transition at x/c =  0.7379   67
 Side 2  free  transition at x/c =  0.9285   72
 idif Ue xi dudx           1  0.16358024      1.93941593E-03   84.345100    
 Uenew xinew           2  7.48071121E-03  8.86917114E-05

   1   rms: 0.9583E-01   max: 0.3888E+00   D at   72  1
       a =  2.400      CL =  0.4309
      Cm = -0.0575     CD =  0.02936   =>   CDf =  0.00778    CDp =  0.02158

 Side 1  free  transition at x/c =  0.7259   65
 Side 2  free  transition at x/c =  0.9350   74

   2   rms: 0.7805E-01   max: -.3887E+00   T at   65  1
       a =  2.400      CL =  0.5036
      Cm = -0.0665     CD =  0.02665   =>   CDf =  0.00752    CDp =  0.01913

 Side 1  free  transition at x/c =  0.7436   67
 Side 2  free  transition at x/c =  0.9287   72
 idif Ue xi dudx           1  0.17409062      2.06482410E-03   84.312569    
 Uenew xinew           2  1.80513114E-02  2.14099884E-04

   3   rms: 0.1643E+00   max: 0.6724E+00   D at   71  1
       a =  2.400      CL =  0.4205
      Cm = -0.0563     CD =  0.02965   =>   CDf =  0.00782    CDp =  0.02183

 Side 1  free  transition at x/c =  0.7247   65
 Side 2  free  transition at x/c =  0.9376   74

   4   rms: 0.1217E+00   max: -.5760E+00   T at   65  1   RLX: 0.868
       a =  2.400      CL =  0.5171
      Cm = -0.0682     CD =  0.02601   =>   CDf =  0.00752    CDp =  0.01849

 Side 1  free  transition at x/c =  0.7481   68
 Side 2  free  transition at x/c =  0.9284   72

   5   rms: 0.7976E-01   max: 0.4026E+00   D at   68  1
       a =  2.400      CL =  0.5057
      Cm = -0.0674     CD =  0.02703   =>   CDf =  0.00774    CDp =  0.01929

 Side 1  free  transition at x/c =  0.7404   67
 Side 2  free  transition at x/c =  0.9270   72

   6   rms: 0.1533E+01   max: -.6993E+01   T at   67  1   RLX: 0.072
       a =  2.400      CL =  0.6072
      Cm = -0.0839     CD =  0.02123   =>   CDf =  0.00759    CDp =  0.01364

 MRCHDU: Convergence failed at  85  side 1    Res =  0.3512E+01
 Side 1  free  transition at x/c =  0.7665   70
 Side 2  free  transition at x/c =  0.9186   71

   7   rms: 0.1200E+00   max: 0.7861E+00   D at   70  1
       a =  2.400      CL =  0.5888
      Cm = -0.0795     CD =  0.02363   =>   CDf =  0.00779    CDp =  0.01584

 MRCHDU: Convergence failed at  81  side 1    Res =  0.9528E+00
 MRCHDU: Convergence failed at  82  side 1    Res =  0.1213E+01
 MRCHDU: Convergence failed at  83  side 1    Res =  0.1549E+01
 MRCHDU: Convergence failed at  84  side 1    Res =  0.2258E+01
 MRCHDU: Convergence failed at  85  side 1    Res =  0.3446E+01
 Side 1  free  transition at x/c =  0.7554   69
 Side 2  free  transition at x/c =  0.9197   71
 idif Ue xi dudx           2  0.32276276      4.05275822E-03   79.640266    
 Uenew xinew           3  0.16935147      2.12645531E-03

   8   rms: 0.4218E+00   max: 0.1893E+01   T at   69  1   RLX: 0.609
       a =  2.400      CL =  0.4224
      Cm = -0.0645     CD =  0.02671   =>   CDf =  0.00799    CDp =  0.01872

 Side 1  free  transition at x/c =  0.7183   65
 Side 2  free  transition at x/c =  0.9419   74

   9   rms: 0.5182E-01   max: -.3942E+00   D at   66  1
       a =  2.400      CL =  0.3645
      Cm = -0.0500     CD =  0.03187   =>   CDf =  0.00755    CDp =  0.02432

 Side 1  free  transition at x/c =  0.7107   64
 Side 2  free  transition at x/c =  0.9409   74

  10   rms: 0.4716E-01   max: 0.3291E+00   T at   64  1
       a =  2.400      CL =  0.3246
      Cm = -0.0464     CD =  0.03341   =>   CDf =  0.00751    CDp =  0.02590
 VISCAL:  Convergence failed

.OPERva   c>  
.OPERva   c>  
.OPERva   c>   Calculating wake trajectory ...
 Calculating source influence matrix ...

 Solving BL system ...

 Side 1  free  transition at x/c =  0.7010   64
 Side 2  free  transition at x/c =  0.9446   75

   1   rms: 0.5352E-01   max: -.1554E+00   D at   88  2   RLX: 0.896
       a =  2.450      CL =  0.3558
      Cm = -0.0488     CD =  0.03238   =>   CDf =  0.00747    CDp =  0.02491

 Side 1  free  transition at x/c =  0.7060   64
 Side 2  free  transition at x/c =  0.9459   75

   2   rms: 0.4021E-01   max: -.1808E+00   T at   64  1
       a =  2.450      CL =  0.3851
      Cm = -0.0516     CD =  0.03093   =>   CDf =  0.00749    CDp =  0.02344

 Side 1  free  transition at x/c =  0.7128   64
 Side 2  free  transition at x/c =  0.9431   74

   3   rms: 0.2529E-01   max: 0.1922E+00   T at   64  1
       a =  2.450      CL =  0.3635
      Cm = -0.0497     CD =  0.03209   =>   CDf =  0.00754    CDp =  0.02455

 Side 1  free  transition at x/c =  0.7071   64
 Side 2  free  transition at x/c =  0.9441   75

   4   rms: 0.3803E-01   max: -.1912E+00   T at   64  1
       a =  2.450      CL =  0.3909
      Cm = -0.0522     CD =  0.03071   =>   CDf =  0.00751    CDp =  0.02320

 Side 1  free  transition at x/c =  0.7142   65
 Side 2  free  transition at x/c =  0.9428   74

   5   rms: 0.1443E-01   max: -.5605E-01   T at   65  1
       a =  2.450      CL =  0.4009
      Cm = -0.0534     CD =  0.03036   =>   CDf =  0.00754    CDp =  0.02282

 Side 1  free  transition at x/c =  0.7157   65
 Side 2  free  transition at x/c =  0.9406   74

   6   rms: 0.1860E-02   max: -.6653E-02   D at   87  2
       a =  2.450      CL =  0.4019
      Cm = -0.0535     CD =  0.03037   =>   CDf =  0.00755    CDp =  0.02282

 Side 1  free  transition at x/c =  0.7159   65
 Side 2  free  transition at x/c =  0.9404   74

   7   rms: 0.7652E-04   max: 0.3817E-03   D at   75  2
       a =  2.450      CL =  0.4020
      Cm = -0.0535     CD =  0.03037   =>   CDf =  0.00755    CDp =  0.02283
 plradd ia,ip,cpol           32          82  0.19919689    

 Point added to stored polar  1
 Save file unspecified or not available
 Dump file unspecified or not available

.OPERva   c>  
.OPERva   c>  
.OPERva   c>   Calculating wake trajectory ...
 Calculating source influence matrix ...

 Solving BL system ...

 Side 1  free  transition at x/c =  0.7159   65
 Side 2  free  transition at x/c =  0.9404   74

   1   rms: 0.1275E-01   max: -.1787E-01   T at   74  2   RLX: 0.978
       a =  2.500      CL =  0.4127
      Cm = -0.0541     CD =  0.03016   =>   CDf =  0.00755    CDp =  0.02261

 Side 1  free  transition at x/c =  0.7154   65
 Side 2  free  transition at x/c =  0.9425   74

   2   rms: 0.5176E-03   max: -.1369E-02   D at   87  2
       a =  2.500      CL =  0.4131
      Cm = -0.0542     CD =  0.03017   =>   CDf =  0.00756    CDp =  0.02261

 Side 1  free  transition at x/c =  0.7154   65
 Side 2  free  transition at x/c =  0.9426   74

   3   rms: 0.1121E-04   max: 0.6881E-04   D at   75  2
       a =  2.500      CL =  0.4131
      Cm = -0.0542     CD =  0.03017   =>   CDf =  0.00756    CDp =  0.02261
 plradd ia,ip,cpol           33          82  0.19919689    

 Point added to stored polar  1
 Save file unspecified or not available
 Dump file unspecified or not available

.OPERva   c>  
.OPERva   c>  
.OPERva   c>   Calculating wake trajectory ...
 Calculating source influence matrix ...

 Solving BL system ...

 Side 1  free  transition at x/c =  0.7154   65
 Side 2  free  transition at x/c =  0.9426   74

   1   rms: 0.1483E-01   max: 0.1176E+00   D at    3  2   RLX: 0.988
       a =  2.550      CL =  0.4236
      Cm = -0.0548     CD =  0.02998   =>   CDf =  0.00756    CDp =  0.02242

 Side 1  free  transition at x/c =  0.7150   65
 Side 2  free  transition at x/c =  0.9443   75

   2   rms: 0.8621E-02   max: -.1068E+00   C at   75  2
       a =  2.550      CL =  0.4239
      Cm = -0.0548     CD =  0.02997   =>   CDf =  0.00757    CDp =  0.02240

 Side 1  free  transition at x/c =  0.7150   65
 Side 2  free  transition at x/c =  0.9448   75

   3   rms: 0.9234E-03   max: 0.9566E-02   C at   75  2
       a =  2.550      CL =  0.4245
      Cm = -0.0549     CD =  0.02998   =>   CDf =  0.00756    CDp =  0.02242

 Side 1  free  transition at x/c =  0.7150   65
 Side 2  free  transition at x/c =  0.9445   75

   4   rms: 0.1314E-04   max: 0.1160E-03   C at   75  2
       a =  2.550      CL =  0.4245
      Cm = -0.0550     CD =  0.02998   =>   CDf =  0.00756    CDp =  0.02242
 plradd ia,ip,cpol           34          82  0.19919689    

 Point added to stored polar  1
 Save file unspecified or not available
 Dump file unspecified or not available

.OPERva   c>  
.OPERva   c>  
.OPERva   c>   Calculating wake trajectory ...
 Calculating source influence matrix ...

 Solving BL system ...

 Side 1  free  transition at x/c =  0.7150   65
 Side 2  free  transition at x/c =  0.9445   75

   1   rms: 0.1842E-01   max: -.1543E+00   D at    3  2
       a =  2.600      CL =  0.4367
      Cm = -0.0558     CD =  0.02977   =>   CDf =  0.00748    CDp =  0.02229

 Side 1  free  transition at x/c =  0.7146   66
 Side 2  free  transition at x/c =  0.9463   74

   2   rms: 0.1714E-02   max: 0.1585E-01   D at    3  2
       a =  2.600      CL =  0.4370
      Cm = -0.0559     CD =  0.02978   =>   CDf =  0.00756    CDp =  0.02223

 Side 1  free  transition at x/c =  0.7146   66
 Side 2  free  transition at x/c =  0.9462   74

   3   rms: 0.3624E-03   max: 0.4596E-02   D at    4  1
       a =  2.600      CL =  0.4370
      Cm = -0.0559     CD =  0.02978   =>   CDf =  0.00756    CDp =  0.02223

 Side 1  free  transition at x/c =  0.7146   66
 Side 2  free  transition at x/c =  0.9463   74

   4   rms: 0.1375E-05   max: 0.9052E-05   D at    7  1
       a =  2.600      CL =  0.4370
      Cm = -0.0559     CD =  0.02978   =>   CDf =  0.00756    CDp =  0.02223
 plradd ia,ip,cpol           35          83  0.19919689    

 Point added to stored polar  1
 Save file unspecified or not available
 Dump file unspecified or not available

.OPERva   c>  
.OPERva   c>  
.OPERva   c>   Calculating wake trajectory ...
 Calculating source influence matrix ...

 Solving BL system ...

 Side 1  free  transition at x/c =  0.7146   66
 Side 2  free  transition at x/c =  0.9463   74

   1   rms: 0.1399E-01   max: 0.2199E-01   D at   77  2
       a =  2.650      CL =  0.4493
      Cm = -0.0568     CD =  0.02959   =>   CDf =  0.00756    CDp =  0.02203

 Side 1  free  transition at x/c =  0.7143   66
 Side 2  free  transition at x/c =  0.9480   74

   2   rms: 0.2848E-03   max: 0.9948E-03   C at   74  2
       a =  2.650      CL =  0.4495
      Cm = -0.0569     CD =  0.02960   =>   CDf =  0.00756    CDp =  0.02204

 Side 1  free  transition at x/c =  0.7143   66
 Side 2  free  transition at x/c =  0.9479   74

   3   rms: 0.3883E-05   max: 0.2340E-04   D at   77  2
       a =  2.650      CL =  0.4495
      Cm = -0.0569     CD =  0.02960   =>   CDf =  0.00756    CDp =  0.02204
 plradd ia,ip,cpol           36          83  0.19919689    

 Point added to stored polar  1
 Save file unspecified or not available
 Dump file unspecified or not available

.OPERva   c>  
.OPERva   c>  
.OPERva   c>   Calculating wake trajectory ...
 Calculating source influence matrix ...

 Solving BL system ...

 Side 1  free  transition at x/c =  0.7143   66
 Side 2  free  transition at x/c =  0.9479   74

   1   rms: 0.1363E-01   max: 0.2276E-01   D at   77  2
       a =  2.700      CL =  0.4622
      Cm = -0.0579     CD =  0.02940   =>   CDf =  0.00756    CDp =  0.02183

 Side 1  free  transition at x/c =  0.7139   66
 Side 2  free  transition at x/c =  0.9498   74

   2   rms: 0.3621E-03   max: -.1393E-02   D at   84  1
       a =  2.700      CL =  0.4626
      Cm = -0.0579     CD =  0.02941   =>   CDf =  0.00757    CDp =  0.02184

 Side 1  free  transition at x/c =  0.7140   66
 Side 2  free  transition at x/c =  0.9498   74

   3   rms: 0.5396E-05   max: 0.3730E-04   D at   75  2
       a =  2.700      CL =  0.4626
      Cm = -0.0579     CD =  0.02941   =>   CDf =  0.00757    CDp =  0.02184
 plradd ia,ip,cpol           37          83  0.19919689    

 Point added to stored polar  1
 Save file unspecified or not available
 Dump file unspecified or not available

.OPERva   c>  
.OPERva   c>  
.OPERva   c>   Calculating wake trajectory ...
 Calculating source influence matrix ...

 Solving BL system ...

 Side 1  free  transition at x/c =  0.7140   66
 Side 2  free  transition at x/c =  0.9498   74

   1   rms: 0.1385E-01   max: 0.2097E-01   D at   77  2
       a =  2.750      CL =  0.4756
      Cm = -0.0590     CD =  0.02919   =>   CDf =  0.00757    CDp =  0.02162

 Side 1  free  transition at x/c =  0.7136   66
 Side 2  free  transition at x/c =  0.9515   74

   2   rms: 0.4422E-03   max: -.1724E-02   D at   84  1
       a =  2.750      CL =  0.4760
      Cm = -0.0591     CD =  0.02920   =>   CDf =  0.00757    CDp =  0.02163

 Side 1  free  transition at x/c =  0.7136   66
 Side 2  free  transition at x/c =  0.9514   74

   3   rms: 0.1219E-04   max: 0.7284E-04   D at   75  2
       a =  2.750      CL =  0.4760
      Cm = -0.0591     CD =  0.02921   =>   CDf =  0.00757    CDp =  0.02164
 plradd ia,ip,cpol           38          83  0.19919689    

 Point added to stored polar  1
 Save file unspecified or not available
 Dump file unspecified or not available

.OPERva   c>  
.OPERva   c>  
.OPERva   c>   Calculating wake trajectory ...
 Calculating source influence matrix ...

 Solving BL system ...

 Side 1  free  transition at x/c =  0.7136   66
 Side 2  free  transition at x/c =  0.9514   74

   1   rms: 0.1466E-01   max: 0.2001E-01   D at   77  2
       a =  2.800      CL =  0.4892
      Cm = -0.0602     CD =  0.02900   =>   CDf =  0.00757    CDp =  0.02143

 Side 1  free  transition at x/c =  0.7133   65
 Side 2  free  transition at x/c =  0.9532   74

   2   rms: 0.1641E-02   max: -.8278E-02   T at   65  1
       a =  2.800      CL =  0.4908
      Cm = -0.0604     CD =  0.02896   =>   CDf =  0.00758    CDp =  0.02138

 Side 1  free  transition at x/c =  0.7136   66
 Side 2  free  transition at x/c =  0.9529   74

   3   rms: 0.4735E-02   max: 0.1760E-01   D at   71  1
       a =  2.800      CL =  0.4896
      Cm = -0.0602     CD =  0.02903   =>   CDf =  0.00758    CDp =  0.02145

 Side 1  free  transition at x/c =  0.7134   65
 Side 2  free  transition at x/c =  0.9531   74

   4   rms: 0.1254E-02   max: -.7740E-02   T at   65  1
       a =  2.800      CL =  0.4908
      Cm = -0.0604     CD =  0.02896   =>   CDf =  0.00758    CDp =  0.02139

 Side 1  free  transition at x/c =  0.7136   66
 Side 2  free  transition at x/c =  0.9529   74

   5   rms: 0.4722E-02   max: 0.1754E-01   D at   71  1
       a =  2.800      CL =  0.4896
      Cm = -0.0602     CD =  0.02903   =>   CDf =  0.00758    CDp =  0.02145

 Side 1  free  transition at x/c =  0.7134   65
 Side 2  free  transition at x/c =  0.9531   74

   6   rms: 0.1253E-02   max: -.7740E-02   T at   65  1
       a =  2.800      CL =  0.4908
      Cm = -0.0604     CD =  0.02896   =>   CDf =  0.00758    CDp =  0.02139

 Side 1  free  transition at x/c =  0.7136   66
 Side 2  free  transition at x/c =  0.9529   74

   7   rms: 0.4720E-02   max: 0.1753E-01   D at   71  1
       a =  2.800      CL =  0.4896
      Cm = -0.0602     CD =  0.02903   =>   CDf =  0.00758    CDp =  0.02145

 Side 1  free  transition at x/c =  0.7134   65
 Side 2  free  transition at x/c =  0.9531   74

   8   rms: 0.1252E-02   max: -.7737E-02   T at   65  1
       a =  2.800      CL =  0.4908
      Cm = -0.0604     CD =  0.02896   =>   CDf =  0.00758    CDp =  0.02139

 Side 1  free  transition at x/c =  0.7136   66
 Side 2  free  transition at x/c =  0.9529   74

   9   rms: 0.4721E-02   max: 0.1754E-01   D at   71  1
       a =  2.800      CL =  0.4896
      Cm = -0.0602     CD =  0.02903   =>   CDf =  0.00758    CDp =  0.02145

 Side 1  free  transition at x/c =  0.7134   65
 Side 2  free  transition at x/c =  0.9531   74

  10   rms: 0.1252E-02   max: -.7734E-02   T at   65  1
       a =  2.800      CL =  0.4908
      Cm = -0.0604     CD =  0.02896   =>   CDf =  0.00758    CDp =  0.02139
 VISCAL:  Convergence failed

.OPERva   c>  
.OPERva   c>  
.OPERva   c>   Calculating wake trajectory ...
 Calculating source influence matrix ...

 Solving BL system ...

 Side 1  free  transition at x/c =  0.7136   66
 Side 2  free  transition at x/c =  0.9529   74

   1   rms: 0.1364E-01   max: 0.1807E-01   D at   77  2
       a =  2.850      CL =  0.5034
      Cm = -0.0614     CD =  0.02880   =>   CDf =  0.00758    CDp =  0.02123

 Side 1  free  transition at x/c =  0.7131   65
 Side 2  free  transition at x/c =  0.9548   74

   2   rms: 0.7003E-02   max: -.3874E-01   T at   65  1
       a =  2.850      CL =  0.5101
      Cm = -0.0622     CD =  0.02855   =>   CDf =  0.00758    CDp =  0.02097

 Side 1  free  transition at x/c =  0.7145   66
 Side 2  free  transition at x/c =  0.9538   74

   3   rms: 0.1753E-01   max: 0.6683E-01   D at   71  1
       a =  2.850      CL =  0.5036
      Cm = -0.0615     CD =  0.02887   =>   CDf =  0.00759    CDp =  0.02128

 Side 1  free  transition at x/c =  0.7131   65
 Side 2  free  transition at x/c =  0.9546   74

   4   rms: 0.6998E-02   max: -.4085E-01   T at   65  1
       a =  2.850      CL =  0.5102
      Cm = -0.0622     CD =  0.02855   =>   CDf =  0.00758    CDp =  0.02097

 Side 1  free  transition at x/c =  0.7145   66
 Side 2  free  transition at x/c =  0.9538   74

   5   rms: 0.1772E-01   max: 0.6768E-01   D at   71  1
       a =  2.850      CL =  0.5036
      Cm = -0.0615     CD =  0.02887   =>   CDf =  0.00759    CDp =  0.02128

 Side 1  free  transition at x/c =  0.7131   65
 Side 2  free  transition at x/c =  0.9546   74

   6   rms: 0.7008E-02   max: -.4092E-01   T at   65  1
       a =  2.850      CL =  0.5102
      Cm = -0.0622     CD =  0.02855   =>   CDf =  0.00758    CDp =  0.02097

 Side 1  free  transition at x/c =  0.7145   66
 Side 2  free  transition at x/c =  0.9538   74

   7   rms: 0.1772E-01   max: 0.6770E-01   D at   71  1
       a =  2.850      CL =  0.5036
      Cm = -0.0615     CD =  0.02887   =>   CDf =  0.00759    CDp =  0.02128

 Side 1  free  transition at x/c =  0.7131   65
 Side 2  free  transition at x/c =  0.9546   74

   8   rms: 0.7010E-02   max: -.4092E-01   T at   65  1
       a =  2.850      CL =  0.5102
      Cm = -0.0622     CD =  0.02855   =>   CDf =  0.00758    CDp =  0.02097

 Side 1  free  transition at x/c =  0.7145   66
 Side 2  free  transition at x/c =  0.9538   74

   9   rms: 0.1773E-01   max: 0.6770E-01   D at   71  1
       a =  2.850      CL =  0.5036
      Cm = -0.0615     CD =  0.02887   =>   CDf =  0.00759    CDp =  0.02128

 Side 1  free  transition at x/c =  0.7131   65
 Side 2  free  transition at x/c =  0.9546   74

  10   rms: 0.7011E-02   max: -.4093E-01   T at   65  1
       a =  2.850      CL =  0.5102
      Cm = -0.0622     CD =  0.02855   =>   CDf =  0.00758    CDp =  0.02097
 VISCAL:  Convergence failed

