
 ===================================================
  XFOIL Version 6.99
  Copyright (C) 2000   Mark Drela, Harold Youngren

  This software comes with ABSOLUTELY NO WARRANTY,
    subject to the GNU General Public License.

  Caveat computor
 ===================================================

 File  xfoil.def  not found

   QUIT    Exit program

  .OPER    Direct operating point(s)
  .MDES    Complex mapping design routine
  .QDES    Surface speed design routine
  .GDES    Geometry design routine

   SAVE f  Write airfoil to labeled coordinate file
   PSAV f  Write airfoil to plain coordinate file
   ISAV f  Write airfoil to ISES coordinate file
   MSAV f  Write airfoil to MSES coordinate file
   REVE    Reverse written-airfoil node ordering

   LOAD f  Read buffer airfoil from coordinate file
   NACA i  Set NACA 4,5-digit airfoil and buffer airfoil
   INTE    Set buffer airfoil by interpolating two airfoils
   NORM    Buffer airfoil normalization toggle
   XYCM rr Change CM reference location, currently  0.25000 0.00000

   BEND    Display structural properties of current airfoil

   PCOP    Set current-airfoil panel nodes directly from buffer airfoil points
   PANE    Set current-airfoil panel nodes ( 160 ) based on curvature
  .PPAR    Show/change paneling

  .PLOP    Plotting options

   WDEF f  Write  current-settings file
   RDEF f  Reread current-settings file
   NAME s  Specify new airfoil name
   NINC    Increment name version number

   Z       Zoom    | (available in all menus)
   U       Unzoom  | 

 XFOIL   c>  
 Labeled airfoil file.  Name:  SG6040                                          

 Number of input coordinate points:  81
 Counterclockwise ordering
 Max thickness =     0.160016  at x =   0.353
 Max camber    =     0.025156  at x =   0.582

  LE  x,y  =   0.00009  -0.00040  |   Chord =   0.99991
  TE  x,y  =   1.00000   0.00000  |

 Current airfoil nodes set from buffer airfoil nodes (  81 )

 XFOIL   c>  
  F  disk file
  C  current airfoil  SG6040                                          

  Select source of airfoil "0" ( F C ):  
Enter filename   s>  
  Select source of airfoil "1" ( F C ):  
Enter filename   s>  
 airfoil "0":  SG6040                                          
 airfoil "1":  WORTMANN FX 63-137 AIRFOIL                      

Specify interpolating fraction  0...1   r>   Max thickness =     0.155421  at x =   0.352
 Max camber    =     0.031211  at x =   0.568

Enter new airfoil name   s>  
 Result has been placed in buffer airfoil
 Execute PCOP or PANE to set new current airfoil

 XFOIL   c>  
 Sharp trailing edge

 Paneling parameters used...
   Number of panel nodes       160
   Panel bunching parameter    1.000
   TE/LE panel density ratio   0.150
   Refined-area/LE panel density ratio    0.200
   Top    side refined area x/c limits  1.000 1.000
   Bottom side refined area x/c limits  1.000 1.000

 XFOIL   c>  
 XFOIL   c>  
 XFOIL   c>  
.OPERi   c>  
.OPERi   c>  
 Sonic Cp =   -550.04      Sonic Q/Qinf =    26.096


.OPERi   c>  
 M  =    0.0350
 Re =     50000

.OPERv   c>  
 Polar  1 newly created for accumulation
 Airfoil archived with polar: BlendedAirfoil                                  

Enter  polar save filename  OR  <return> for no file   s>  
 Polar save file will NOT be written

Enter  polar dump filename  OR  <return> for no file   s>  
 Polar dump file will NOT be written

 Polar accumulation enabled

.OPERva   c>   Calculating unit vorticity distributions ...
 Calculating wake trajectory ...
 Calculating source influence matrix ...

 Solving BL system ...

 Initializing BL ...
    side            1  ...
 MRCHUE: Inverse mode at  53     Hk =   3.800
 MRCHUE: Inverse mode at  54     Hk =   4.035
 MRCHUE: Inverse mode at  55     Hk =   4.265
 MRCHUE: Inverse mode at  56     Hk =   4.489
 MRCHUE: Inverse mode at  57     Hk =   4.709
 MRCHUE: Inverse mode at  58     Hk =   4.926
 MRCHUE: Inverse mode at  59     Hk =   5.140
 MRCHUE: Inverse mode at  60     Hk =   5.349
 MRCHUE: Inverse mode at  61     Hk =   5.556
 MRCHUE: Inverse mode at  62     Hk =   5.760
 MRCHUE: Inverse mode at  63     Hk =   5.962
 MRCHUE: Inverse mode at  64     Hk =   6.162
 MRCHUE: Inverse mode at  65     Hk =   6.360
 MRCHUE: Inverse mode at  66     Hk =   6.556
 MRCHUE: Inverse mode at  67     Hk =   6.750
 MRCHUE: Inverse mode at  68     Hk =   6.944
 MRCHUE: Inverse mode at  69     Hk =   7.137
 MRCHUE: Inverse mode at  70     Hk =   7.327
 MRCHUE: Inverse mode at  71     Hk =   7.516
 MRCHUE: Inverse mode at  72     Hk =   7.703
 MRCHUE: Inverse mode at  73     Hk =   7.888
 MRCHUE: Inverse mode at  74     Hk =   8.070
 MRCHUE: Inverse mode at  75     Hk =   8.250
 MRCHUE: Inverse mode at  76     Hk =   8.426
 MRCHUE: Inverse mode at  77     Hk =   8.595
 MRCHUE: Inverse mode at  78     Hk =   8.757
 MRCHUE: Inverse mode at  79     Hk =   8.911
 MRCHUE: Inverse mode at  80     Hk =   9.055
 MRCHUE: Inverse mode at  81     Hk =   9.188
 MRCHUE: Inverse mode at  82     Hk =   9.304
 MRCHUE: Inverse mode at  83     Hk =   9.371
    side            2  ...
 MRCHUE: Inverse mode at  48     Hk =   3.800
 MRCHUE: Inverse mode at  49     Hk =   4.018
 MRCHUE: Inverse mode at  50     Hk =   4.233
 MRCHUE: Inverse mode at  51     Hk =   4.446
 MRCHUE: Inverse mode at  52     Hk =   4.655
 MRCHUE: Inverse mode at  53     Hk =   4.862
 MRCHUE: Inverse mode at  54     Hk =   5.065
 MRCHUE: Inverse mode at  55     Hk =   5.265
 MRCHUE: Convergence failed at  55  side 2    Res =  0.4301E+00
 MRCHUE: Inverse mode at  56     Hk =   5.263
 MRCHUE: Inverse mode at  57     Hk =   5.456
 MRCHUE: Inverse mode at  58     Hk =   5.645
 MRCHUE: Inverse mode at  59     Hk =   5.830
 MRCHUE: Inverse mode at  60     Hk =   6.011
 MRCHUE: Inverse mode at  61     Hk =   6.189
 MRCHUE: Inverse mode at  62     Hk =   6.364
 MRCHUE: Inverse mode at  63     Hk =   6.536
 MRCHUE: Inverse mode at  64     Hk =   6.705
 MRCHUE: Inverse mode at  65     Hk =   6.871
 MRCHUE: Inverse mode at  66     Hk =   7.034
 MRCHUE: Inverse mode at  67     Hk =   7.194
 MRCHUE: Inverse mode at  68     Hk =   7.351
 MRCHUE: Inverse mode at  69     Hk =   7.506
 MRCHUE: Inverse mode at  70     Hk =   7.659
 MRCHUE: Inverse mode at  71     Hk =   7.808
 MRCHUE: Inverse mode at  72     Hk =   7.953
 MRCHUE: Inverse mode at  73     Hk =   8.094
 MRCHUE: Inverse mode at  74     Hk =   8.229
 MRCHUE: Inverse mode at  75     Hk =   8.357
 MRCHUE: Inverse mode at  76     Hk =   8.476
 MRCHUE: Inverse mode at  77     Hk =   8.584
 MRCHUE: Inverse mode at  78     Hk =   8.682
 MRCHUE: Inverse mode at  79     Hk =   8.740
 MRCHUE: Inverse mode at  81     Hk =   5.728
 MRCHUE: Inverse mode at  82     Hk =   4.428
 MRCHUE: Inverse mode at  83     Hk =   3.743
 MRCHUE: Inverse mode at  84     Hk =   3.315
 MRCHUE: Inverse mode at  85     Hk =   3.019

 Side 1 forced transition at x/c =  1.0000   83
 Side 2 forced transition at x/c =  1.0000   79
 idif Ue xi dudx           2  0.39858124      5.11705875E-03   77.892647    
 Uenew xinew           3  0.25415418      3.26287746E-03

   1   rms: 0.1043E+01   max: 0.5068E+01   D at   86  2   RLX: 0.296
       a =  0.000      CL =  0.3004
      Cm = -0.0983     CD =  0.01093   =>   CDf =  0.01113    CDp = -0.00021

 Side 1  free  transition at x/c =  0.9645   78
 Side 2 forced transition at x/c =  1.0000   81
 idif Ue xi dudx           1  0.21844539      3.52644920E-03   61.944859    
 Uenew xinew           2  9.53104869E-02  1.53863430E-03

   2   rms: 0.3516E+00   max: 0.2027E+01   D at   90  2   RLX: 0.740
       a =  0.000      CL =  0.1473
      Cm = -0.0635     CD =  0.02482   =>   CDf =  0.01032    CDp =  0.01450

 MRCHDU: Convergence failed at  90  side 2    Res =  0.3295E+01
 MRCHDU: Convergence failed at  91  side 2    Res =  0.6447E+01
 MRCHDU: Convergence failed at  92  side 2    Res =  0.3409E+01
 Side 1  free  transition at x/c =  0.9375   75
 Side 2 forced transition at x/c =  1.0000   82
 idif Ue xi dudx           1  0.17064282      3.01480293E-03   56.601650    
 Uenew xinew           2  5.30483946E-02  9.37223434E-04

   3   rms: 0.1423E+00   max: 0.9361E+00   T at   75  1
       a =  0.000      CL =  0.0475
      Cm = -0.0430     CD =  0.04011   =>   CDf =  0.00962    CDp =  0.03049

 Side 1  free  transition at x/c =  0.9162   73
 Side 2  free  transition at x/c =  0.9943   83

   4   rms: 0.3619E-01   max: 0.2411E+00   T at   73  1
       a =  0.000      CL =  0.0136
      Cm = -0.0367     CD =  0.04300   =>   CDf =  0.00901    CDp =  0.03399

 Side 1  free  transition at x/c =  0.9109   72
 Side 2  free  transition at x/c =  0.9883   82

   5   rms: 0.1037E-01   max: -.4952E-01   D at   82  2
       a =  0.000      CL =  0.0216
      Cm = -0.0381     CD =  0.04324   =>   CDf =  0.00890    CDp =  0.03435

 Side 1  free  transition at x/c =  0.9105   72
 Side 2  free  transition at x/c =  0.9886   82

   6   rms: 0.8469E-03   max: 0.3517E-02   D at   83  2
       a =  0.000      CL =  0.0227
      Cm = -0.0383     CD =  0.04330   =>   CDf =  0.00892    CDp =  0.03438

 Side 1  free  transition at x/c =  0.9105   72
 Side 2  free  transition at x/c =  0.9886   82

   7   rms: 0.7140E-05   max: -.6140E-04   D at   94  2
       a =  0.000      CL =  0.0227
      Cm = -0.0383     CD =  0.04331   =>   CDf =  0.00892    CDp =  0.03438
 plradd ia,ip,cpol            1          78  4.87532131E-02

 Point added to stored polar  1
 Save file unspecified or not available
 Dump file unspecified or not available

.OPERva   c>  
.OPERva   c>  
.OPERva   c>   Calculating wake trajectory ...
 Calculating source influence matrix ...

 Solving BL system ...

 Side 1  free  transition at x/c =  0.9105   72
 Side 2  free  transition at x/c =  0.9886   82

   1   rms: 0.1653E-01   max: -.1568E+00   D at    3  2   RLX: 0.885
       a =  0.050      CL =  0.0282
      Cm = -0.0389     CD =  0.04335   =>   CDf =  0.00892    CDp =  0.03443

 Side 1  free  transition at x/c =  0.9085   72
 Side 2  free  transition at x/c =  0.9910   82

   2   rms: 0.2800E-02   max: -.2652E-01   T at    3  2
       a =  0.050      CL =  0.0301
      Cm = -0.0392     CD =  0.04336   =>   CDf =  0.00894    CDp =  0.03442

 Side 1  free  transition at x/c =  0.9083   72
 Side 2  free  transition at x/c =  0.9914   82

   3   rms: 0.1460E-04   max: -.1975E-03   T at    3  2
       a =  0.050      CL =  0.0301
      Cm = -0.0392     CD =  0.04336   =>   CDf =  0.00894    CDp =  0.03442
 plradd ia,ip,cpol            2          78  4.87532131E-02

 Point added to stored polar  1
 Save file unspecified or not available
 Dump file unspecified or not available

.OPERva   c>  
.OPERva   c>  
.OPERva   c>   Calculating wake trajectory ...
 Calculating source influence matrix ...

 Solving BL system ...

 Side 1  free  transition at x/c =  0.9083   72
 Side 2  free  transition at x/c =  0.9914   82

   1   rms: 0.1701E-01   max: 0.1671E+00   D at    3  2   RLX: 0.891
       a =  0.100      CL =  0.0378
      Cm = -0.0402     CD =  0.04345   =>   CDf =  0.00894    CDp =  0.03451

 Side 1  free  transition at x/c =  0.9063   72
 Side 2  free  transition at x/c =  0.9938   83

   2   rms: 0.3938E-02   max: -.5013E-01   D at   82  2
       a =  0.100      CL =  0.0399
      Cm = -0.0406     CD =  0.04346   =>   CDf =  0.00896    CDp =  0.03450

 Side 1  free  transition at x/c =  0.9060   72
 Side 2  free  transition at x/c =  0.9942   83

   3   rms: 0.6608E-04   max: -.5408E-03   D at   83  2
       a =  0.100      CL =  0.0399
      Cm = -0.0406     CD =  0.04347   =>   CDf =  0.00897    CDp =  0.03450
 plradd ia,ip,cpol            3          78  4.87532131E-02

 Point added to stored polar  1
 Save file unspecified or not available
 Dump file unspecified or not available

.OPERva   c>  
.OPERva   c>  
.OPERva   c>   Calculating wake trajectory ...
 Calculating source influence matrix ...

 Solving BL system ...

 Side 1  free  transition at x/c =  0.9060   72
 Side 2  free  transition at x/c =  0.9942   83

   1   rms: 0.1366E-01   max: -.3341E-01   T at   83  2   RLX: 0.903
       a =  0.150      CL =  0.0509
      Cm = -0.0422     CD =  0.04359   =>   CDf =  0.00897    CDp =  0.03462

 Side 1  free  transition at x/c =  0.9039   72
 Side 2  free  transition at x/c =  0.9967   83

   2   rms: 0.2000E-02   max: -.5234E-02   D at   92  2
       a =  0.150      CL =  0.0529
      Cm = -0.0425     CD =  0.04361   =>   CDf =  0.00899    CDp =  0.03462

 Side 1  free  transition at x/c =  0.9037   72
 Side 2  free  transition at x/c =  0.9971   83

   3   rms: 0.1988E-04   max: -.1023E-03   D at   91  2
       a =  0.150      CL =  0.0529
      Cm = -0.0425     CD =  0.04362   =>   CDf =  0.00900    CDp =  0.03462
 plradd ia,ip,cpol            4          78  4.87532131E-02

 Point added to stored polar  1
 Save file unspecified or not available
 Dump file unspecified or not available

.OPERva   c>  
.OPERva   c>  
.OPERva   c>   Calculating wake trajectory ...
 Calculating source influence matrix ...

 Solving BL system ...

 Side 1  free  transition at x/c =  0.9037   72
 Side 2  free  transition at x/c =  0.9971   83

   1   rms: 0.1679E-01   max: -.1400E+00   D at    3  2   RLX: 0.916
       a =  0.200      CL =  0.0654
      Cm = -0.0444     CD =  0.04377   =>   CDf =  0.00900    CDp =  0.03477

 Side 1  free  transition at x/c =  0.9017   72
 Side 2  free  transition at x/c =  0.9998   83

   2   rms: 0.2549E-02   max: -.1946E-01   T at    3  2
       a =  0.200      CL =  0.0677
      Cm = -0.0447     CD =  0.04381   =>   CDf =  0.00911    CDp =  0.03469

 Side 1  free  transition at x/c =  0.9016   73
 Side 2 forced transition at x/c =  1.0000   82

   3   rms: 0.9104E-02   max: -.1578E+00   T at    2  1
       a =  0.200      CL =  0.0673
      Cm = -0.0447     CD =  0.04381   =>   CDf =  0.00904    CDp =  0.03477

 Side 1  free  transition at x/c =  0.9016   73
 Side 2 forced transition at x/c =  1.0000   82

   4   rms: 0.8756E-03   max: -.1165E-01   D at    3  1
       a =  0.200      CL =  0.0673
      Cm = -0.0447     CD =  0.04381   =>   CDf =  0.00904    CDp =  0.03477

 Side 1  free  transition at x/c =  0.9016   73
 Side 2 forced transition at x/c =  1.0000   82

   5   rms: 0.5218E-04   max: -.6772E-03   D at    4  1
       a =  0.200      CL =  0.0673
      Cm = -0.0447     CD =  0.04381   =>   CDf =  0.00904    CDp =  0.03477
 plradd ia,ip,cpol            5          79  0.25820407    

 Point added to stored polar  1
 Save file unspecified or not available
 Dump file unspecified or not available

.OPERva   c>  
.OPERva   c>  
.OPERva   c>   Calculating wake trajectory ...
 Calculating source influence matrix ...

 Solving BL system ...

 Side 1  free  transition at x/c =  0.9016   73
 Side 2 forced transition at x/c =  1.0000   82
 idif Ue xi dudx           1  0.12998870      2.38883495E-03   54.415104    
 Uenew xinew           2  1.69369988E-02  3.11255455E-04

   1   rms: 0.2514E-01   max: -.4616E+00   D at    3  1   RLX: 0.913
       a =  0.250      CL =  0.0700
      Cm = -0.0447     CD =  0.04385   =>   CDf =  0.00899    CDp =  0.03486

 Side 1  free  transition at x/c =  0.8999   72
 Side 2 forced transition at x/c =  1.0000   83

   2   rms: 0.7745E-02   max: 0.9209E-01   D at    3  1
       a =  0.250      CL =  0.0710
      Cm = -0.0449     CD =  0.04386   =>   CDf =  0.00905    CDp =  0.03481

 Side 1  free  transition at x/c =  0.8997   72
 Side 2 forced transition at x/c =  1.0000   83

   3   rms: 0.1194E-03   max: 0.1393E-02   D at    8  1
       a =  0.250      CL =  0.0710
      Cm = -0.0449     CD =  0.04386   =>   CDf =  0.00905    CDp =  0.03481

 Side 1  free  transition at x/c =  0.8997   72
 Side 2 forced transition at x/c =  1.0000   83

   4   rms: 0.9518E-06   max: 0.1056E-04   D at    4  2
       a =  0.250      CL =  0.0710
      Cm = -0.0449     CD =  0.04386   =>   CDf =  0.00905    CDp =  0.03481
 plradd ia,ip,cpol            6          78  0.25820407    

 Point added to stored polar  1
 Save file unspecified or not available
 Dump file unspecified or not available

.OPERva   c>  
.OPERva   c>  
.OPERva   c>   Calculating wake trajectory ...
 Calculating source influence matrix ...

 Solving BL system ...

 Side 1  free  transition at x/c =  0.8997   72
 Side 2 forced transition at x/c =  1.0000   83

   1   rms: 0.1334E-01   max: -.1373E+00   D at    3  2   RLX: 0.911
       a =  0.300      CL =  0.0752
      Cm = -0.0452     CD =  0.04392   =>   CDf =  0.00913    CDp =  0.03479

 Side 1  free  transition at x/c =  0.8981   73
 Side 2 forced transition at x/c =  1.0000   82

   2   rms: 0.4185E-01   max: -.7582E+00   D at    2  1   RLX: 0.659
       a =  0.300      CL =  0.0760
      Cm = -0.0453     CD =  0.04397   =>   CDf =  0.00908    CDp =  0.03489

 Side 1  free  transition at x/c =  0.8980   73
 Side 2 forced transition at x/c =  1.0000   82

   3   rms: 0.3941E-02   max: -.5306E-01   D at    4  1
       a =  0.300      CL =  0.0765
      Cm = -0.0454     CD =  0.04395   =>   CDf =  0.00908    CDp =  0.03487

 Side 1  free  transition at x/c =  0.8979   73
 Side 2 forced transition at x/c =  1.0000   82

   4   rms: 0.2546E-04   max: -.3879E-03   D at    4  1
       a =  0.300      CL =  0.0765
      Cm = -0.0454     CD =  0.04396   =>   CDf =  0.00908    CDp =  0.03487
 plradd ia,ip,cpol            7          79  0.25820407    

 Point added to stored polar  1
 Save file unspecified or not available
 Dump file unspecified or not available

.OPERva   c>  
.OPERva   c>  
.OPERva   c>   Calculating wake trajectory ...
 Calculating source influence matrix ...

 Solving BL system ...

 Side 1  free  transition at x/c =  0.8979   73
 Side 2 forced transition at x/c =  1.0000   82

   1   rms: 0.1120E-01   max: -.4644E-01   D at    6  2   RLX: 0.912
       a =  0.350      CL =  0.0819
      Cm = -0.0459     CD =  0.04403   =>   CDf =  0.00908    CDp =  0.03495

 Side 1  free  transition at x/c =  0.8964   73
 Side 2 forced transition at x/c =  1.0000   82

   2   rms: 0.1800E-02   max: -.4441E-02   D at   93  2
       a =  0.350      CL =  0.0835
      Cm = -0.0461     CD =  0.04408   =>   CDf =  0.00911    CDp =  0.03497

 Side 1  free  transition at x/c =  0.8963   73
 Side 2 forced transition at x/c =  1.0000   82

   3   rms: 0.3058E-04   max: -.1529E-03   D at   90  2
       a =  0.350      CL =  0.0835
      Cm = -0.0461     CD =  0.04409   =>   CDf =  0.00911    CDp =  0.03498
 plradd ia,ip,cpol            8          79  0.25820407    

 Point added to stored polar  1
 Save file unspecified or not available
 Dump file unspecified or not available

.OPERva   c>  
.OPERva   c>  
.OPERva   c>   Calculating wake trajectory ...
 Calculating source influence matrix ...

 Solving BL system ...

 Side 1  free  transition at x/c =  0.8963   73
 Side 2 forced transition at x/c =  1.0000   82

   1   rms: 0.1385E-01   max: -.1037E+00   D at    4  1   RLX: 0.920
       a =  0.400      CL =  0.0924
      Cm = -0.0471     CD =  0.04422   =>   CDf =  0.00911    CDp =  0.03511

 Side 1  free  transition at x/c =  0.8948   72
 Side 2 forced transition at x/c =  1.0000   82

   2   rms: 0.8075E-02   max: 0.2084E-01   D at   94  2
       a =  0.400      CL =  0.0834
      Cm = -0.0457     CD =  0.04417   =>   CDf =  0.00915    CDp =  0.03502

 Side 1  free  transition at x/c =  0.8944   72
 Side 2 forced transition at x/c =  1.0000   82

   3   rms: 0.4516E-03   max: -.1201E-02   D at   94  2
       a =  0.400      CL =  0.0839
      Cm = -0.0457     CD =  0.04412   =>   CDf =  0.00912    CDp =  0.03500

 Side 1  free  transition at x/c =  0.8944   72
 Side 2 forced transition at x/c =  1.0000   82

   4   rms: 0.7681E-05   max: -.5194E-04   D at   93  2
       a =  0.400      CL =  0.0839
      Cm = -0.0457     CD =  0.04412   =>   CDf =  0.00912    CDp =  0.03500
 plradd ia,ip,cpol            9          79  0.25820407    

 Point added to stored polar  1
 Save file unspecified or not available
 Dump file unspecified or not available

.OPERva   c>  
.OPERva   c>  
.OPERva   c>   Calculating wake trajectory ...
 Calculating source influence matrix ...

 Solving BL system ...

 Side 1  free  transition at x/c =  0.8944   72
 Side 2 forced transition at x/c =  1.0000   82

   1   rms: 0.1286E-01   max: 0.1203E+00   D at    4  1   RLX: 0.885
       a =  0.450      CL =  0.0787
      Cm = -0.0446     CD =  0.04413   =>   CDf =  0.00913    CDp =  0.03500

 Side 1  free  transition at x/c =  0.8928   72
 Side 2 forced transition at x/c =  1.0000   82

   2   rms: 0.1554E-02   max: 0.1301E-01   D at    4  1
       a =  0.450      CL =  0.0794
      Cm = -0.0446     CD =  0.04408   =>   CDf =  0.00912    CDp =  0.03496

 Side 1  free  transition at x/c =  0.8925   72
 Side 2 forced transition at x/c =  1.0000   82

   3   rms: 0.9561E-05   max: -.6666E-04   D at    4  1
       a =  0.450      CL =  0.0794
      Cm = -0.0446     CD =  0.04407   =>   CDf =  0.00912    CDp =  0.03495
 plradd ia,ip,cpol           10          79  0.25820407    

 Point added to stored polar  1
 Save file unspecified or not available
 Dump file unspecified or not available

.OPERva   c>  
.OPERva   c>  
.OPERva   c>   Calculating wake trajectory ...
 Calculating source influence matrix ...

 Solving BL system ...

 Side 1  free  transition at x/c =  0.8925   72
 Side 2 forced transition at x/c =  1.0000   82

   1   rms: 0.1550E-01   max: 0.1468E+00   D at    3  1   RLX: 0.873
       a =  0.500      CL =  0.0765
      Cm = -0.0438     CD =  0.04409   =>   CDf =  0.00912    CDp =  0.03497

 Side 1  free  transition at x/c =  0.8911   72
 Side 2 forced transition at x/c =  1.0000   82

   2   rms: 0.1708E-02   max: 0.1606E-01   D at    3  2
       a =  0.500      CL =  0.0768
      Cm = -0.0438     CD =  0.04406   =>   CDf =  0.00912    CDp =  0.03493

 Side 1  free  transition at x/c =  0.8908   72
 Side 2 forced transition at x/c =  1.0000   82

   3   rms: 0.9833E-05   max: -.7482E-04   D at    3  1
       a =  0.500      CL =  0.0768
      Cm = -0.0438     CD =  0.04405   =>   CDf =  0.00912    CDp =  0.03493
 plradd ia,ip,cpol           11          79  0.25820407    

 Point added to stored polar  1
 Save file unspecified or not available
 Dump file unspecified or not available

.OPERva   c>  
.OPERva   c>  
.OPERva   c>   Calculating wake trajectory ...
 Calculating source influence matrix ...

 Solving BL system ...

 Side 1  free  transition at x/c =  0.8908   72
 Side 2 forced transition at x/c =  1.0000   82

   1   rms: 0.9656E-02   max: -.6317E-01   D at    3  2   RLX: 0.862
       a =  0.550      CL =  0.0752
      Cm = -0.0432     CD =  0.04408   =>   CDf =  0.00912    CDp =  0.03495

 Side 1  free  transition at x/c =  0.8893   72
 Side 2 forced transition at x/c =  1.0000   82

   2   rms: 0.1465E-02   max: -.9634E-02   D at    3  2
       a =  0.550      CL =  0.0756
      Cm = -0.0432     CD =  0.04406   =>   CDf =  0.00913    CDp =  0.03493

 Side 1  free  transition at x/c =  0.8890   72
 Side 2 forced transition at x/c =  1.0000   82

   3   rms: 0.9179E-05   max: 0.4178E-04   D at   81  2
       a =  0.550      CL =  0.0756
      Cm = -0.0432     CD =  0.04406   =>   CDf =  0.00913    CDp =  0.03493
 plradd ia,ip,cpol           12          79  0.25820407    

 Point added to stored polar  1
 Save file unspecified or not available
 Dump file unspecified or not available

.OPERva   c>  
.OPERva   c>  
.OPERva   c>   Calculating wake trajectory ...
 Calculating source influence matrix ...

 Solving BL system ...

 Side 1  free  transition at x/c =  0.8890   72
 Side 2 forced transition at x/c =  1.0000   82

   1   rms: 0.8910E-02   max: 0.5568E-01   D at    5  1   RLX: 0.853
       a =  0.600      CL =  0.0753
      Cm = -0.0428     CD =  0.04408   =>   CDf =  0.00913    CDp =  0.03495

 Side 1  free  transition at x/c =  0.8875   72
 Side 2 forced transition at x/c =  1.0000   82

   2   rms: 0.1434E-02   max: -.5909E-02   D at    8  2
       a =  0.600      CL =  0.0758
      Cm = -0.0428     CD =  0.04407   =>   CDf =  0.00914    CDp =  0.03493

 Side 1  free  transition at x/c =  0.8872   72
 Side 2 forced transition at x/c =  1.0000   82

   3   rms: 0.1149E-04   max: 0.5864E-04   D at   81  2
       a =  0.600      CL =  0.0758
      Cm = -0.0428     CD =  0.04407   =>   CDf =  0.00914    CDp =  0.03493
 plradd ia,ip,cpol           13          79  0.25820407    

 Point added to stored polar  1
 Save file unspecified or not available
 Dump file unspecified or not available

.OPERva   c>  
.OPERva   c>  
.OPERva   c>   Calculating wake trajectory ...
 Calculating source influence matrix ...

 Solving BL system ...

 Side 1  free  transition at x/c =  0.8872   72
 Side 2 forced transition at x/c =  1.0000   82

   1   rms: 0.1363E-01   max: 0.1299E+00   D at    3  2   RLX: 0.847
       a =  0.650      CL =  0.0766
      Cm = -0.0426     CD =  0.04410   =>   CDf =  0.00914    CDp =  0.03496

 Side 1  free  transition at x/c =  0.8856   72
 Side 2 forced transition at x/c =  1.0000   82

   2   rms: 0.2192E-02   max: 0.2029E-01   D at    3  2
       a =  0.650      CL =  0.0775
      Cm = -0.0427     CD =  0.04410   =>   CDf =  0.00915    CDp =  0.03495

 Side 1  free  transition at x/c =  0.8853   72
 Side 2 forced transition at x/c =  1.0000   82

   3   rms: 0.2509E-04   max: -.1348E-03   D at   93  2
       a =  0.650      CL =  0.0775
      Cm = -0.0427     CD =  0.04411   =>   CDf =  0.00915    CDp =  0.03495
 plradd ia,ip,cpol           14          79  0.25820407    

 Point added to stored polar  1
 Save file unspecified or not available
 Dump file unspecified or not available

.OPERva   c>  
.OPERva   c>  
.OPERva   c>   Calculating wake trajectory ...
 Calculating source influence matrix ...

 Solving BL system ...

 Side 1  free  transition at x/c =  0.8853   72
 Side 2 forced transition at x/c =  1.0000   82

   1   rms: 0.1151E-01   max: -.1190E+00   D at    3  2   RLX: 0.842
       a =  0.700      CL =  0.0794
      Cm = -0.0427     CD =  0.04414   =>   CDf =  0.00915    CDp =  0.03499

 Side 1  free  transition at x/c =  0.8839   72
 Side 2 forced transition at x/c =  1.0000   82

   2   rms: 0.2120E-02   max: -.2117E-01   D at    3  2
       a =  0.700      CL =  0.0803
      Cm = -0.0428     CD =  0.04416   =>   CDf =  0.00916    CDp =  0.03500

 Side 1  free  transition at x/c =  0.8836   72
 Side 2 forced transition at x/c =  1.0000   82

   3   rms: 0.3211E-04   max: -.2138E-03   D at   94  2
       a =  0.700      CL =  0.0804
      Cm = -0.0428     CD =  0.04417   =>   CDf =  0.00917    CDp =  0.03500
 plradd ia,ip,cpol           15          79  0.25820407    

 Point added to stored polar  1
 Save file unspecified or not available
 Dump file unspecified or not available

.OPERva   c>  
.OPERva   c>  
.OPERva   c>   Calculating wake trajectory ...
 Calculating source influence matrix ...

 Solving BL system ...

 Side 1  free  transition at x/c =  0.8836   72
 Side 2 forced transition at x/c =  1.0000   82

   1   rms: 0.9110E-02   max: 0.5897E-01   D at    4  1   RLX: 0.840
       a =  0.750      CL =  0.0835
      Cm = -0.0429     CD =  0.04420   =>   CDf =  0.00917    CDp =  0.03503

 Side 1  free  transition at x/c =  0.8821   72
 Side 2 forced transition at x/c =  1.0000   82

   2   rms: 0.1959E-02   max: -.3745E-02   D at   94  2
       a =  0.750      CL =  0.0849
      Cm = -0.0431     CD =  0.04425   =>   CDf =  0.00918    CDp =  0.03507

 Side 1  free  transition at x/c =  0.8818   72
 Side 2 forced transition at x/c =  1.0000   82

   3   rms: 0.5314E-04   max: -.3220E-03   D at   93  2
       a =  0.750      CL =  0.0850
      Cm = -0.0431     CD =  0.04426   =>   CDf =  0.00919    CDp =  0.03507
 plradd ia,ip,cpol           16          79  0.24290843    

 Point added to stored polar  1
 Save file unspecified or not available
 Dump file unspecified or not available

.OPERva   c>  
.OPERva   c>  
.OPERva   c>   Calculating wake trajectory ...
 Calculating source influence matrix ...

 Solving BL system ...

 Side 1  free  transition at x/c =  0.8818   72
 Side 2 forced transition at x/c =  1.0000   82

   1   rms: 0.1495E-01   max: -.1613E+00   D at    3  1   RLX: 0.840
       a =  0.800      CL =  0.0894
      Cm = -0.0434     CD =  0.04431   =>   CDf =  0.00919    CDp =  0.03512

 Side 1  free  transition at x/c =  0.8805   72
 Side 2 forced transition at x/c =  1.0000   82

   2   rms: 0.3261E-02   max: -.2677E-01   D at    3  1
       a =  0.800      CL =  0.0914
      Cm = -0.0437     CD =  0.04439   =>   CDf =  0.00921    CDp =  0.03518

 Side 1  free  transition at x/c =  0.8802   72
 Side 2 forced transition at x/c =  1.0000   82

   3   rms: 0.6450E-04   max: -.3433E-03   D at   93  2
       a =  0.800      CL =  0.0915
      Cm = -0.0437     CD =  0.04440   =>   CDf =  0.00921    CDp =  0.03519
 plradd ia,ip,cpol           17          79  0.24290843    

 Point added to stored polar  1
 Save file unspecified or not available
 Dump file unspecified or not available

.OPERva   c>  
.OPERva   c>  
.OPERva   c>   Calculating wake trajectory ...
 Calculating source influence matrix ...

 Solving BL system ...

 Side 1  free  transition at x/c =  0.8802   72
 Side 2 forced transition at x/c =  1.0000   82

   1   rms: 0.1771E-01   max: 0.1754E+00   D at    3  1   RLX: 0.846
       a =  0.850      CL =  0.0992
      Cm = -0.0445     CD =  0.04452   =>   CDf =  0.00921    CDp =  0.03530

 Side 1  free  transition at x/c =  0.8787   71
 Side 2 forced transition at x/c =  1.0000   82

   2   rms: 0.4658E-02   max: -.9722E-02   C at   82  2
       a =  0.850      CL =  0.0943
      Cm = -0.0437     CD =  0.04452   =>   CDf =  0.00924    CDp =  0.03528

 Side 1  free  transition at x/c =  0.8783   71
 Side 2 forced transition at x/c =  1.0000   82

   3   rms: 0.2151E-03   max: 0.5369E-03   C at   82  2
       a =  0.850      CL =  0.0945
      Cm = -0.0437     CD =  0.04449   =>   CDf =  0.00923    CDp =  0.03526

 Side 1  free  transition at x/c =  0.8783   71
 Side 2 forced transition at x/c =  1.0000   82

   4   rms: 0.3883E-05   max: -.2349E-04   D at   92  2
       a =  0.850      CL =  0.0945
      Cm = -0.0437     CD =  0.04449   =>   CDf =  0.00923    CDp =  0.03526
 plradd ia,ip,cpol           18          79  0.24290843    

 Point added to stored polar  1
 Save file unspecified or not available
 Dump file unspecified or not available

.OPERva   c>  
.OPERva   c>  
.OPERva   c>   Calculating wake trajectory ...
 Calculating source influence matrix ...

 Solving BL system ...

 Side 1  free  transition at x/c =  0.8783   71
 Side 2 forced transition at x/c =  1.0000   82

   1   rms: 0.1046E-01   max: -.6608E-01   D at    5  2   RLX: 0.818
       a =  0.900      CL =  0.0881
      Cm = -0.0424     CD =  0.04449   =>   CDf =  0.00923    CDp =  0.03526

 Side 1  free  transition at x/c =  0.8770   71
 Side 2 forced transition at x/c =  1.0000   82

   2   rms: 0.1587E-02   max: -.1214E-01   D at    5  2
       a =  0.900      CL =  0.0883
      Cm = -0.0423     CD =  0.04443   =>   CDf =  0.00922    CDp =  0.03521

 Side 1  free  transition at x/c =  0.8767   71
 Side 2 forced transition at x/c =  1.0000   82

   3   rms: 0.2484E-04   max: 0.1364E-03   D at   93  2
       a =  0.900      CL =  0.0883
      Cm = -0.0423     CD =  0.04442   =>   CDf =  0.00922    CDp =  0.03520
 plradd ia,ip,cpol           19          79  0.24290843    

 Point added to stored polar  1
 Save file unspecified or not available
 Dump file unspecified or not available

.OPERva   c>  
.OPERva   c>  
.OPERva   c>   Calculating wake trajectory ...
 Calculating source influence matrix ...

 Solving BL system ...

 Side 1  free  transition at x/c =  0.8767   71
 Side 2 forced transition at x/c =  1.0000   82

   1   rms: 0.8909E-02   max: 0.5542E-01   T at   71  1   RLX: 0.806
       a =  0.950      CL =  0.0842
      Cm = -0.0414     CD =  0.04443   =>   CDf =  0.00923    CDp =  0.03521

 Side 1  free  transition at x/c =  0.8754   71
 Side 2 forced transition at x/c =  1.0000   82

   2   rms: 0.1588E-02   max: 0.1044E-01   T at   71  1
       a =  0.950      CL =  0.0841
      Cm = -0.0413     CD =  0.04439   =>   CDf =  0.00922    CDp =  0.03516

 Side 1  free  transition at x/c =  0.8750   71
 Side 2 forced transition at x/c =  1.0000   82

   3   rms: 0.2568E-04   max: 0.1299E-03   D at   93  2
       a =  0.950      CL =  0.0842
      Cm = -0.0413     CD =  0.04438   =>   CDf =  0.00922    CDp =  0.03515
 plradd ia,ip,cpol           20          79  0.24290843    

 Point added to stored polar  1
 Save file unspecified or not available
 Dump file unspecified or not available

.OPERva   c>  
.OPERva   c>  
.OPERva   c>   Calculating wake trajectory ...
 Calculating source influence matrix ...

 Solving BL system ...

 Side 1  free  transition at x/c =  0.8750   71
 Side 2 forced transition at x/c =  1.0000   82

   1   rms: 0.8617E-02   max: 0.4757E-01   D at    6  1   RLX: 0.795
       a =  1.000      CL =  0.0815
      Cm = -0.0406     CD =  0.04440   =>   CDf =  0.00922    CDp =  0.03518

 Side 1  free  transition at x/c =  0.8739   71
 Side 2 forced transition at x/c =  1.0000   82

   2   rms: 0.1711E-02   max: -.9489E-02   D at    3  1
       a =  1.000      CL =  0.0814
      Cm = -0.0405     CD =  0.04437   =>   CDf =  0.00923    CDp =  0.03514

 Side 1  free  transition at x/c =  0.8736   71
 Side 2 forced transition at x/c =  1.0000   82

   3   rms: 0.2149E-04   max: 0.1277E-03   C at   82  2
       a =  1.000      CL =  0.0814
      Cm = -0.0405     CD =  0.04436   =>   CDf =  0.00923    CDp =  0.03513
 plradd ia,ip,cpol           21          79  0.24290843    

 Point added to stored polar  1
 Save file unspecified or not available
 Dump file unspecified or not available

.OPERva   c>  
.OPERva   c>  
.OPERva   c>   Calculating wake trajectory ...
 Calculating source influence matrix ...

 Solving BL system ...

 Side 1  free  transition at x/c =  0.8736   71
 Side 2 forced transition at x/c =  1.0000   82

   1   rms: 0.1021E-01   max: -.9437E-01   D at    5  2   RLX: 0.785
       a =  1.050      CL =  0.0798
      Cm = -0.0399     CD =  0.04437   =>   CDf =  0.00923    CDp =  0.03515

 Side 1  free  transition at x/c =  0.8723   71
 Side 2 forced transition at x/c =  1.0000   82

   2   rms: 0.2223E-02   max: -.2097E-01   D at    5  2
       a =  1.050      CL =  0.0799
      Cm = -0.0398     CD =  0.04436   =>   CDf =  0.00923    CDp =  0.03513

 Side 1  free  transition at x/c =  0.8719   71
 Side 2 forced transition at x/c =  1.0000   82

   3   rms: 0.3316E-04   max: 0.2287E-03   C at   82  2
       a =  1.050      CL =  0.0799
      Cm = -0.0399     CD =  0.04436   =>   CDf =  0.00923    CDp =  0.03512
 plradd ia,ip,cpol           22          79  0.24290843    

 Point added to stored polar  1
 Save file unspecified or not available
 Dump file unspecified or not available

.OPERva   c>  
.OPERva   c>  
.OPERva   c>   Calculating wake trajectory ...
 Calculating source influence matrix ...

 Solving BL system ...

 Side 1  free  transition at x/c =  0.8719   71
 Side 2 forced transition at x/c =  1.0000   82

   1   rms: 0.1206E-01   max: 0.9998E-01   D at    5  2   RLX: 0.777
       a =  1.100      CL =  0.0791
      Cm = -0.0394     CD =  0.04436   =>   CDf =  0.00923    CDp =  0.03513

 Side 1  free  transition at x/c =  0.8708   71
 Side 2 forced transition at x/c =  1.0000   82

   2   rms: 0.2667E-02   max: 0.2250E-01   D at    5  2
       a =  1.100      CL =  0.0793
      Cm = -0.0394     CD =  0.04437   =>   CDf =  0.00924    CDp =  0.03513

 Side 1  free  transition at x/c =  0.8704   71
 Side 2 forced transition at x/c =  1.0000   82

   3   rms: 0.4011E-04   max: 0.2953E-03   C at   82  2
       a =  1.100      CL =  0.0793
      Cm = -0.0394     CD =  0.04437   =>   CDf =  0.00924    CDp =  0.03513
 plradd ia,ip,cpol           23          79  0.24290843    

 Point added to stored polar  1
 Save file unspecified or not available
 Dump file unspecified or not available

.OPERva   c>  
.OPERva   c>  
.OPERva   c>   Calculating wake trajectory ...
 Calculating source influence matrix ...

 Solving BL system ...

 Side 1  free  transition at x/c =  0.8704   71
 Side 2 forced transition at x/c =  1.0000   82

   1   rms: 0.1390E-01   max: 0.1789E+00   D at    3  1   RLX: 0.771
       a =  1.150      CL =  0.0795
      Cm = -0.0391     CD =  0.04437   =>   CDf =  0.00924    CDp =  0.03513

 Side 1  free  transition at x/c =  0.8691   71
 Side 2 forced transition at x/c =  1.0000   82

   2   rms: 0.2880E-02   max: 0.3452E-01   D at    3  1
       a =  1.150      CL =  0.0802
      Cm = -0.0391     CD =  0.04439   =>   CDf =  0.00925    CDp =  0.03514

 Side 1  free  transition at x/c =  0.8687   71
 Side 2 forced transition at x/c =  1.0000   82

   3   rms: 0.6610E-04   max: 0.3994E-03   C at   82  2
       a =  1.150      CL =  0.0802
      Cm = -0.0391     CD =  0.04440   =>   CDf =  0.00925    CDp =  0.03515
 plradd ia,ip,cpol           24          79  0.24290843    

 Point added to stored polar  1
 Save file unspecified or not available
 Dump file unspecified or not available

.OPERva   c>  
.OPERva   c>  
.OPERva   c>   Calculating wake trajectory ...
 Calculating source influence matrix ...

 Solving BL system ...

 Side 1  free  transition at x/c =  0.8687   71
 Side 2 forced transition at x/c =  1.0000   82

   1   rms: 0.1153E-01   max: -.1062E+00   D at    3  1   RLX: 0.766
       a =  1.200      CL =  0.0812
      Cm = -0.0389     CD =  0.04441   =>   CDf =  0.00925    CDp =  0.03516

 Side 1  free  transition at x/c =  0.8675   71
 Side 2 forced transition at x/c =  1.0000   82

   2   rms: 0.3034E-02   max: -.2622E-01   D at    3  1
       a =  1.200      CL =  0.0824
      Cm = -0.0390     CD =  0.04445   =>   CDf =  0.00926    CDp =  0.03519

 Side 1  free  transition at x/c =  0.8670   71
 Side 2 forced transition at x/c =  1.0000   82

   3   rms: 0.8168E-04   max: -.4103E-03   D at   94  2
       a =  1.200      CL =  0.0825
      Cm = -0.0390     CD =  0.04446   =>   CDf =  0.00926    CDp =  0.03520
 plradd ia,ip,cpol           25          79  0.24290843    

 Point added to stored polar  1
 Save file unspecified or not available
 Dump file unspecified or not available

.OPERva   c>  
.OPERva   c>  
.OPERva   c>   Calculating wake trajectory ...
 Calculating source influence matrix ...

 Solving BL system ...

 Side 1  free  transition at x/c =  0.8670   71
 Side 2 forced transition at x/c =  1.0000   82

   1   rms: 0.1110E-01   max: -.7126E-01   D at    3  2   RLX: 0.763
       a =  1.250      CL =  0.0847
      Cm = -0.0390     CD =  0.04449   =>   CDf =  0.00926    CDp =  0.03523

 Side 1  free  transition at x/c =  0.8658   71
 Side 2 forced transition at x/c =  1.0000   82

   2   rms: 0.3174E-02   max: -.1919E-01   D at    3  2
       a =  1.250      CL =  0.0866
      Cm = -0.0392     CD =  0.04455   =>   CDf =  0.00928    CDp =  0.03527

 Side 1  free  transition at x/c =  0.8653   71
 Side 2 forced transition at x/c =  1.0000   82

   3   rms: 0.1206E-03   max: -.5494E-03   D at   94  2
       a =  1.250      CL =  0.0867
      Cm = -0.0392     CD =  0.04456   =>   CDf =  0.00928    CDp =  0.03528

 Side 1  free  transition at x/c =  0.8653   71
 Side 2 forced transition at x/c =  1.0000   82

   4   rms: 0.2392E-05   max: -.1640E-04   C at   82  2
       a =  1.250      CL =  0.0867
      Cm = -0.0392     CD =  0.04456   =>   CDf =  0.00928    CDp =  0.03528
 plradd ia,ip,cpol           26          79  0.24290843    

 Point added to stored polar  1
 Save file unspecified or not available
 Dump file unspecified or not available

.OPERva   c>  
.OPERva   c>  
.OPERva   c>   Calculating wake trajectory ...
 Calculating source influence matrix ...

 Solving BL system ...

 Side 1  free  transition at x/c =  0.8653   71
 Side 2 forced transition at x/c =  1.0000   82

   1   rms: 0.1451E-01   max: 0.1281E+00   D at    4  2   RLX: 0.764
       a =  1.300      CL =  0.0913
      Cm = -0.0396     CD =  0.04463   =>   CDf =  0.00928    CDp =  0.03535

 Side 1  free  transition at x/c =  0.8639   71
 Side 2 forced transition at x/c =  1.0000   82

   2   rms: 0.4331E-02   max: 0.3165E-01   D at    4  2
       a =  1.300      CL =  0.0944
      Cm = -0.0400     CD =  0.04472   =>   CDf =  0.00930    CDp =  0.03543

 Side 1  free  transition at x/c =  0.8634   71
 Side 2 forced transition at x/c =  1.0000   82

   3   rms: 0.2057E-03   max: -.8024E-03   D at   93  2
       a =  1.300      CL =  0.0946
      Cm = -0.0400     CD =  0.04474   =>   CDf =  0.00931    CDp =  0.03544

 Side 1  free  transition at x/c =  0.8634   71
 Side 2 forced transition at x/c =  1.0000   82

   4   rms: 0.5255E-05   max: -.4738E-04   C at   82  2
       a =  1.300      CL =  0.0946
      Cm = -0.0400     CD =  0.04474   =>   CDf =  0.00931    CDp =  0.03544
 plradd ia,ip,cpol           27          79  0.24290843    

 Point added to stored polar  1
 Save file unspecified or not available
 Dump file unspecified or not available

.OPERva   c>  
.OPERva   c>  
.OPERva   c>   Calculating wake trajectory ...
 Calculating source influence matrix ...

 Solving BL system ...

 Side 1  free  transition at x/c =  0.8634   71
 Side 2 forced transition at x/c =  1.0000   82

   1   rms: 0.1631E-01   max: -.1286E+00   D at    3  1   RLX: 0.772
       a =  1.350      CL =  0.1026
      Cm = -0.0409     CD =  0.04489   =>   CDf =  0.00931    CDp =  0.03558

 Side 1  free  transition at x/c =  0.8620   70
 Side 2 forced transition at x/c =  1.0000   82

   2   rms: 0.6915E-02   max: -.3011E-01   C at   82  2
       a =  1.350      CL =  0.0955
      Cm = -0.0397     CD =  0.04486   =>   CDf =  0.00934    CDp =  0.03553

 Side 1  free  transition at x/c =  0.8617   70
 Side 2 forced transition at x/c =  1.0000   82

   3   rms: 0.4471E-03   max: 0.2902E-02   C at   82  2
       a =  1.350      CL =  0.0960
      Cm = -0.0398     CD =  0.04481   =>   CDf =  0.00932    CDp =  0.03549

 Side 1  free  transition at x/c =  0.8616   70
 Side 2 forced transition at x/c =  1.0000   82

   4   rms: 0.1102E-04   max: -.6228E-04   D at   92  2
       a =  1.350      CL =  0.0960
      Cm = -0.0398     CD =  0.04482   =>   CDf =  0.00932    CDp =  0.03549
 plradd ia,ip,cpol           28          79  0.24290843    

 Point added to stored polar  1
 Save file unspecified or not available
 Dump file unspecified or not available

.OPERva   c>  
.OPERva   c>  
.OPERva   c>   Calculating wake trajectory ...
 Calculating source influence matrix ...

 Solving BL system ...

 Side 1  free  transition at x/c =  0.8616   70
 Side 2 forced transition at x/c =  1.0000   82

   1   rms: 0.1131E-01   max: -.8220E-01   C at   82  2   RLX: 0.745
       a =  1.400      CL =  0.0902
      Cm = -0.0386     CD =  0.04479   =>   CDf =  0.00932    CDp =  0.03547

 Side 1  free  transition at x/c =  0.8606   70
 Side 2 forced transition at x/c =  1.0000   82

   2   rms: 0.2373E-02   max: -.1760E-01   C at   82  2
       a =  1.400      CL =  0.0896
      Cm = -0.0384     CD =  0.04474   =>   CDf =  0.00932    CDp =  0.03542

 Side 1  free  transition at x/c =  0.8602   70
 Side 2 forced transition at x/c =  1.0000   82

   3   rms: 0.6594E-04   max: 0.3684E-03   C at   82  2
       a =  1.400      CL =  0.0896
      Cm = -0.0384     CD =  0.04473   =>   CDf =  0.00932    CDp =  0.03541
 plradd ia,ip,cpol           29          79  0.24290843    

 Point added to stored polar  1
 Save file unspecified or not available
 Dump file unspecified or not available

.OPERva   c>  
.OPERva   c>  
.OPERva   c>   Calculating wake trajectory ...
 Calculating source influence matrix ...

 Solving BL system ...

 Side 1  free  transition at x/c =  0.8602   70
 Side 2 forced transition at x/c =  1.0000   82

   1   rms: 0.1246E-01   max: 0.9483E-01   D at    3  1   RLX: 0.735
       a =  1.450      CL =  0.0858
      Cm = -0.0376     CD =  0.04474   =>   CDf =  0.00932    CDp =  0.03542

 Side 1  free  transition at x/c =  0.8593   70
 Side 2 forced transition at x/c =  1.0000   82

   2   rms: 0.2992E-02   max: 0.2405E-01   D at    3  1
       a =  1.450      CL =  0.0852
      Cm = -0.0374     CD =  0.04469   =>   CDf =  0.00932    CDp =  0.03537

 Side 1  free  transition at x/c =  0.8589   70
 Side 2 forced transition at x/c =  1.0000   82

   3   rms: 0.7169E-04   max: 0.6120E-03   C at   82  2
       a =  1.450      CL =  0.0853
      Cm = -0.0374     CD =  0.04468   =>   CDf =  0.00932    CDp =  0.03536
 plradd ia,ip,cpol           30          79  0.24290843    

 Point added to stored polar  1
 Save file unspecified or not available
 Dump file unspecified or not available

.OPERva   c>  
.OPERva   c>  
.OPERva   c>   Calculating wake trajectory ...
 Calculating source influence matrix ...

 Solving BL system ...

 Side 1  free  transition at x/c =  0.8589   70
 Side 2 forced transition at x/c =  1.0000   82

   1   rms: 0.8780E-02   max: -.8571E-01   C at   82  2   RLX: 0.725
       a =  1.500      CL =  0.0826
      Cm = -0.0367     CD =  0.04469   =>   CDf =  0.00932    CDp =  0.03537

 Side 1  free  transition at x/c =  0.8578   70
 Side 2 forced transition at x/c =  1.0000   82

   2   rms: 0.2253E-02   max: -.1984E-01   C at   82  2
       a =  1.500      CL =  0.0824
      Cm = -0.0366     CD =  0.04466   =>   CDf =  0.00932    CDp =  0.03534

 Side 1  free  transition at x/c =  0.8573   70
 Side 2 forced transition at x/c =  1.0000   82

   3   rms: 0.7122E-04   max: 0.7267E-03   C at   82  2
       a =  1.500      CL =  0.0825
      Cm = -0.0366     CD =  0.04465   =>   CDf =  0.00932    CDp =  0.03533
 plradd ia,ip,cpol           31          79  0.24290843    

 Point added to stored polar  1
 Save file unspecified or not available
 Dump file unspecified or not available

.OPERva   c>  
.OPERva   c>  
.OPERva   c>   Calculating wake trajectory ...
 Calculating source influence matrix ...

 Solving BL system ...

 Side 1  free  transition at x/c =  0.8573   70
 Side 2 forced transition at x/c =  1.0000   82

   1   rms: 0.9891E-02   max: -.8848E-01   C at   82  2   RLX: 0.717
       a =  1.550      CL =  0.0810
      Cm = -0.0361     CD =  0.04469   =>   CDf =  0.00933    CDp =  0.03536

 Side 1  free  transition at x/c =  0.8566   70
 Side 2 forced transition at x/c =  1.0000   82

   2   rms: 0.2672E-02   max: -.2166E-01   D at    4  1
       a =  1.550      CL =  0.0810
      Cm = -0.0360     CD =  0.04468   =>   CDf =  0.00933    CDp =  0.03535

 Side 1  free  transition at x/c =  0.8562   70
 Side 2 forced transition at x/c =  1.0000   82

   3   rms: 0.5973E-04   max: 0.7861E-03   C at   82  2
       a =  1.550      CL =  0.0810
      Cm = -0.0360     CD =  0.04467   =>   CDf =  0.00933    CDp =  0.03534
 plradd ia,ip,cpol           32          79  0.24290843    

 Point added to stored polar  1
 Save file unspecified or not available
 Dump file unspecified or not available

.OPERva   c>  
.OPERva   c>  
.OPERva   c>   Calculating wake trajectory ...
 Calculating source influence matrix ...

 Solving BL system ...

 Side 1  free  transition at x/c =  0.8562   70
 Side 2 forced transition at x/c =  1.0000   82

   1   rms: 0.1117E-01   max: 0.9517E-01   D at    3  2   RLX: 0.711
       a =  1.600      CL =  0.0807
      Cm = -0.0357     CD =  0.04471   =>   CDf =  0.00933    CDp =  0.03538

 Side 1  free  transition at x/c =  0.8551   70
 Side 2 forced transition at x/c =  1.0000   82

   2   rms: 0.3296E-02   max: 0.2895E-01   D at    3  2
       a =  1.600      CL =  0.0813
      Cm = -0.0357     CD =  0.04471   =>   CDf =  0.00934    CDp =  0.03537

 Side 1  free  transition at x/c =  0.8545   70
 Side 2 forced transition at x/c =  1.0000   82

   3   rms: 0.8300E-04   max: 0.1007E-02   C at   82  2
       a =  1.600      CL =  0.0814
      Cm = -0.0357     CD =  0.04471   =>   CDf =  0.00934    CDp =  0.03537
 plradd ia,ip,cpol           33          79  0.24290843    

 Point added to stored polar  1
 Save file unspecified or not available
 Dump file unspecified or not available

.OPERva   c>  
.OPERva   c>  
.OPERva   c>   Calculating wake trajectory ...
 Calculating source influence matrix ...

 Solving BL system ...

 Side 1  free  transition at x/c =  0.8545   70
 Side 2 forced transition at x/c =  1.0000   82

   1   rms: 0.1106E-01   max: -.1026E+00   D at    3  2   RLX: 0.707
       a =  1.650      CL =  0.0822
      Cm = -0.0356     CD =  0.04475   =>   CDf =  0.00934    CDp =  0.03540

 Side 1  free  transition at x/c =  0.8534   70
 Side 2 forced transition at x/c =  1.0000   82

   2   rms: 0.3308E-02   max: -.2984E-01   T at    3  2
       a =  1.650      CL =  0.0833
      Cm = -0.0356     CD =  0.04479   =>   CDf =  0.00935    CDp =  0.03543

 Side 1  free  transition at x/c =  0.8529   70
 Side 2 forced transition at x/c =  1.0000   82

   3   rms: 0.8519E-04   max: 0.9528E-03   C at   82  2
       a =  1.650      CL =  0.0834
      Cm = -0.0356     CD =  0.04479   =>   CDf =  0.00936    CDp =  0.03543
 plradd ia,ip,cpol           34          79  0.22758298    

 Point added to stored polar  1
 Save file unspecified or not available
 Dump file unspecified or not available

.OPERva   c>  
.OPERva   c>  
.OPERva   c>   Calculating wake trajectory ...
 Calculating source influence matrix ...

 Solving BL system ...

 Side 1  free  transition at x/c =  0.8529   70
 Side 2 forced transition at x/c =  1.0000   82

   1   rms: 0.9383E-02   max: -.7996E-01   C at   82  2   RLX: 0.704
       a =  1.700      CL =  0.0852
      Cm = -0.0357     CD =  0.04485   =>   CDf =  0.00936    CDp =  0.03549

 Side 1  free  transition at x/c =  0.8519   70
 Side 2 forced transition at x/c =  1.0000   82

   2   rms: 0.2926E-02   max: -.1789E-01   C at   82  2
       a =  1.700      CL =  0.0867
      Cm = -0.0358     CD =  0.04490   =>   CDf =  0.00937    CDp =  0.03553

 Side 1  free  transition at x/c =  0.8514   70
 Side 2 forced transition at x/c =  1.0000   82

   3   rms: 0.8412E-04   max: 0.9643E-03   C at   82  2
       a =  1.700      CL =  0.0867
      Cm = -0.0358     CD =  0.04491   =>   CDf =  0.00937    CDp =  0.03553
 plradd ia,ip,cpol           35          79  0.22758298    

 Point added to stored polar  1
 Save file unspecified or not available
 Dump file unspecified or not available

.OPERva   c>  
.OPERva   c>  
.OPERva   c>   Calculating wake trajectory ...
 Calculating source influence matrix ...

 Solving BL system ...

 Side 1  free  transition at x/c =  0.8514   70
 Side 2 forced transition at x/c =  1.0000   82

   1   rms: 0.1379E-01   max: -.1186E+00   T at    3  2   RLX: 0.704
       a =  1.750      CL =  0.0904
      Cm = -0.0361     CD =  0.04499   =>   CDf =  0.00942    CDp =  0.03557

 Side 1  free  transition at x/c =  0.8501   71
 Side 2 forced transition at x/c =  1.0000   81

   2   rms: 0.1062E-01   max: -.1482E+00   T at    2  1
       a =  1.750      CL =  0.0931
      Cm = -0.0363     CD =  0.04506   =>   CDf =  0.00939    CDp =  0.03566

 Side 1  free  transition at x/c =  0.8494   71
 Side 2 forced transition at x/c =  1.0000   81

   3   rms: 0.2747E-03   max: -.2520E-02   D at    3  1
       a =  1.750      CL =  0.0933
      Cm = -0.0364     CD =  0.04507   =>   CDf =  0.00940    CDp =  0.03567

 Side 1  free  transition at x/c =  0.8494   71
 Side 2 forced transition at x/c =  1.0000   81

   4   rms: 0.4776E-05   max: -.4746E-04   C at   81  2
       a =  1.750      CL =  0.0933
      Cm = -0.0364     CD =  0.04507   =>   CDf =  0.00940    CDp =  0.03567
 plradd ia,ip,cpol           36          80  0.24290843    

 Point added to stored polar  1
 Save file unspecified or not available
 Dump file unspecified or not available

.OPERva   c>  
.OPERva   c>  
.OPERva   c>   Calculating wake trajectory ...
 Calculating source influence matrix ...

 Solving BL system ...

 Side 1  free  transition at x/c =  0.8494   71
 Side 2 forced transition at x/c =  1.0000   81

   1   rms: 0.1246E-01   max: 0.7069E-01   T at   71  1   RLX: 0.708
       a =  1.800      CL =  0.0994
      Cm = -0.0370     CD =  0.04519   =>   CDf =  0.00940    CDp =  0.03579

 Side 1  free  transition at x/c =  0.8479   71
 Side 2 forced transition at x/c =  1.0000   81

   2   rms: 0.5377E-02   max: 0.9590E-02   T at   90  2
       a =  1.800      CL =  0.1042
      Cm = -0.0375     CD =  0.04532   =>   CDf =  0.00942    CDp =  0.03590

 Side 1  free  transition at x/c =  0.8471   71
 Side 2 forced transition at x/c =  1.0000   81

   3   rms: 0.4774E-03   max: -.1620E-02   D at   92  2
       a =  1.800      CL =  0.1047
      Cm = -0.0376     CD =  0.04534   =>   CDf =  0.00943    CDp =  0.03591

 Side 1  free  transition at x/c =  0.8471   71
 Side 2 forced transition at x/c =  1.0000   81

   4   rms: 0.1662E-04   max: -.1082E-03   C at   81  2
       a =  1.800      CL =  0.1047
      Cm = -0.0376     CD =  0.04535   =>   CDf =  0.00943    CDp =  0.03591
 plradd ia,ip,cpol           37          80  0.22758298    

 Point added to stored polar  1
 Save file unspecified or not available
 Dump file unspecified or not available

.OPERva   c>  
.OPERva   c>  
.OPERva   c>   Calculating wake trajectory ...
 Calculating source influence matrix ...

 Solving BL system ...

 Side 1  free  transition at x/c =  0.8471   71
 Side 2 forced transition at x/c =  1.0000   81

   1   rms: 0.1537E-01   max: -.4487E-01   C at   81  2   RLX: 0.718
       a =  1.850      CL =  0.1137
      Cm = -0.0386     CD =  0.04555   =>   CDf =  0.00943    CDp =  0.03612

 Side 1  free  transition at x/c =  0.8457   70
 Side 2 forced transition at x/c =  1.0000   81

   2   rms: 0.3250E-02   max: -.2626E-01   C at   81  2
       a =  1.850      CL =  0.1119
      Cm = -0.0383     CD =  0.04560   =>   CDf =  0.00946    CDp =  0.03614

 Side 1  free  transition at x/c =  0.8452   70
 Side 2 forced transition at x/c =  1.0000   81

   3   rms: 0.2562E-03   max: 0.1361E-02   C at   81  2
       a =  1.850      CL =  0.1122
      Cm = -0.0383     CD =  0.04559   =>   CDf =  0.00946    CDp =  0.03613

 Side 1  free  transition at x/c =  0.8452   70
 Side 2 forced transition at x/c =  1.0000   81

   4   rms: 0.5092E-05   max: -.3461E-04   D at   90  2
       a =  1.850      CL =  0.1122
      Cm = -0.0383     CD =  0.04559   =>   CDf =  0.00946    CDp =  0.03613
 plradd ia,ip,cpol           38          80  0.22758298    

 Point added to stored polar  1
 Save file unspecified or not available
 Dump file unspecified or not available

.OPERva   c>  
.OPERva   c>  
.OPERva   c>   Calculating wake trajectory ...
 Calculating source influence matrix ...

 Solving BL system ...

 Side 1  free  transition at x/c =  0.8452   70
 Side 2 forced transition at x/c =  1.0000   81

   1   rms: 0.1007E-01   max: -.9476E-01   C at   81  2   RLX: 0.701
       a =  1.900      CL =  0.1086
      Cm = -0.0376     CD =  0.04561   =>   CDf =  0.00946    CDp =  0.03615

 Side 1  free  transition at x/c =  0.8440   70
 Side 2 forced transition at x/c =  1.0000   81

   2   rms: 0.2481E-02   max: 0.2049E-01   T at   70  1
       a =  1.900      CL =  0.1090
      Cm = -0.0376     CD =  0.04560   =>   CDf =  0.00946    CDp =  0.03614

 Side 1  free  transition at x/c =  0.8434   70
 Side 2 forced transition at x/c =  1.0000   81

   3   rms: 0.1083E-03   max: 0.8441E-03   C at   81  2
       a =  1.900      CL =  0.1091
      Cm = -0.0376     CD =  0.04559   =>   CDf =  0.00946    CDp =  0.03612

 Side 1  free  transition at x/c =  0.8434   70
 Side 2 forced transition at x/c =  1.0000   81

   4   rms: 0.1864E-05   max: -.1573E-04   D at   91  2
       a =  1.900      CL =  0.1091
      Cm = -0.0376     CD =  0.04559   =>   CDf =  0.00946    CDp =  0.03612
 plradd ia,ip,cpol           39          80  0.21225892    

 Point added to stored polar  1
 Save file unspecified or not available
 Dump file unspecified or not available

.OPERva   c>  
.OPERva   c>  
.OPERva   c>   Calculating wake trajectory ...
 Calculating source influence matrix ...

 Solving BL system ...

 Side 1  free  transition at x/c =  0.8434   70
 Side 2 forced transition at x/c =  1.0000   81

   1   rms: 0.1347E-01   max: 0.1066E+00   D at    3  2   RLX: 0.696
       a =  1.950      CL =  0.1084
      Cm = -0.0373     CD =  0.04567   =>   CDf =  0.00946    CDp =  0.03620

 Side 1  free  transition at x/c =  0.8424   70
 Side 2 forced transition at x/c =  1.0000   81

   2   rms: 0.3797E-02   max: 0.3127E-01   D at    3  2
       a =  1.950      CL =  0.1091
      Cm = -0.0373     CD =  0.04567   =>   CDf =  0.00947    CDp =  0.03620

 Side 1  free  transition at x/c =  0.8419   70
 Side 2 forced transition at x/c =  1.0000   81

   3   rms: 0.7032E-04   max: 0.7095E-03   C at   81  2
       a =  1.950      CL =  0.1091
      Cm = -0.0373     CD =  0.04566   =>   CDf =  0.00947    CDp =  0.03618
 plradd ia,ip,cpol           40          80  0.21225892    

 Point added to stored polar  1
 Save file unspecified or not available
 Dump file unspecified or not available

.OPERva   c>  
.OPERva   c>  
.OPERva   c>   Calculating wake trajectory ...
 Calculating source influence matrix ...

 Solving BL system ...

 Side 1  free  transition at x/c =  0.8419   70
 Side 2 forced transition at x/c =  1.0000   81

   1   rms: 0.1161E-01   max: -.7853E-01   D at    3  1   RLX: 0.692
       a =  2.000      CL =  0.1099
      Cm = -0.0372     CD =  0.04576   =>   CDf =  0.00947    CDp =  0.03629

 Side 1  free  transition at x/c =  0.8408   70
 Side 2 forced transition at x/c =  1.0000   81

   2   rms: 0.3749E-02   max: -.2574E-01   D at    3  1
       a =  2.000      CL =  0.1107
      Cm = -0.0372     CD =  0.04578   =>   CDf =  0.00948    CDp =  0.03630

 Side 1  free  transition at x/c =  0.8403   70
 Side 2 forced transition at x/c =  1.0000   81

   3   rms: 0.5969E-04   max: 0.6128E-03   C at   81  2
       a =  2.000      CL =  0.1108
      Cm = -0.0372     CD =  0.04577   =>   CDf =  0.00948    CDp =  0.03629
 plradd ia,ip,cpol           41          80  0.21225892    

 Point added to stored polar  1
 Save file unspecified or not available
 Dump file unspecified or not available

.OPERva   c>  
.OPERva   c>  
.OPERva   c>   Calculating wake trajectory ...
 Calculating source influence matrix ...

 Solving BL system ...

 Side 1  free  transition at x/c =  0.8403   70
 Side 2 forced transition at x/c =  1.0000   81

   1   rms: 0.1068E-01   max: 0.9063E-01   D at    4  1   RLX: 0.689
       a =  2.050      CL =  0.1124
      Cm = -0.0373     CD =  0.04588   =>   CDf =  0.00948    CDp =  0.03640

 Side 1  free  transition at x/c =  0.8390   70
 Side 2 forced transition at x/c =  1.0000   81

   2   rms: 0.3435E-02   max: 0.2646E-01   D at    4  1
       a =  2.050      CL =  0.1139
      Cm = -0.0374     CD =  0.04591   =>   CDf =  0.00949    CDp =  0.03642

 Side 1  free  transition at x/c =  0.8384   70
 Side 2 forced transition at x/c =  1.0000   81

   3   rms: 0.7394E-04   max: 0.6619E-03   C at   81  2
       a =  2.050      CL =  0.1139
      Cm = -0.0374     CD =  0.04591   =>   CDf =  0.00949    CDp =  0.03641
 plradd ia,ip,cpol           42          80  0.21225892    

 Point added to stored polar  1
 Save file unspecified or not available
 Dump file unspecified or not available

.OPERva   c>  
.OPERva   c>  
.OPERva   c>   Calculating wake trajectory ...
 Calculating source influence matrix ...

 Solving BL system ...

 Side 1  free  transition at x/c =  0.8384   70
 Side 2 forced transition at x/c =  1.0000   81

   1   rms: 0.1505E-01   max: 0.1354E+00   D at    3  2   RLX: 0.688
       a =  2.100      CL =  0.1166
      Cm = -0.0376     CD =  0.04603   =>   CDf =  0.00949    CDp =  0.03653

 Side 1  free  transition at x/c =  0.8373   70
 Side 2 forced transition at x/c =  1.0000   81

   2   rms: 0.4412E-02   max: 0.4126E-01   D at    3  2
       a =  2.100      CL =  0.1183
      Cm = -0.0377     CD =  0.04608   =>   CDf =  0.00951    CDp =  0.03658

 Side 1  free  transition at x/c =  0.8368   70
 Side 2 forced transition at x/c =  1.0000   81

   3   rms: 0.5257E-04   max: 0.5678E-03   C at   81  2
       a =  2.100      CL =  0.1183
      Cm = -0.0377     CD =  0.04608   =>   CDf =  0.00951    CDp =  0.03657
 plradd ia,ip,cpol           43          80  0.21225892    

 Point added to stored polar  1
 Save file unspecified or not available
 Dump file unspecified or not available

.OPERva   c>  
.OPERva   c>  
.OPERva   c>   Calculating wake trajectory ...
 Calculating source influence matrix ...

 Solving BL system ...

 Side 1  free  transition at x/c =  0.8368   70
 Side 2 forced transition at x/c =  1.0000   81

   1   rms: 0.1352E-01   max: -.1353E+00   D at    3  1   RLX: 0.688
       a =  2.150      CL =  0.1224
      Cm = -0.0381     CD =  0.04620   =>   CDf =  0.00951    CDp =  0.03669

 Side 1  free  transition at x/c =  0.8353   70
 Side 2 forced transition at x/c =  1.0000   81

   2   rms: 0.4731E-02   max: -.4098E-01   D at    3  1
       a =  2.150      CL =  0.1253
      Cm = -0.0384     CD =  0.04627   =>   CDf =  0.00952    CDp =  0.03675

 Side 1  free  transition at x/c =  0.8345   70
 Side 2 forced transition at x/c =  1.0000   81

   3   rms: 0.1743E-03   max: -.6929E-03   D at   93  2
       a =  2.150      CL =  0.1254
      Cm = -0.0384     CD =  0.04628   =>   CDf =  0.00953    CDp =  0.03675

 Side 1  free  transition at x/c =  0.8345   70
 Side 2 forced transition at x/c =  1.0000   81

   4   rms: 0.6657E-05   max: -.3593E-04   C at   81  2
       a =  2.150      CL =  0.1254
      Cm = -0.0384     CD =  0.04628   =>   CDf =  0.00953    CDp =  0.03675
 plradd ia,ip,cpol           44          80  0.21225892    

 Point added to stored polar  1
 Save file unspecified or not available
 Dump file unspecified or not available

.OPERva   c>  
.OPERva   c>  
.OPERva   c>   Calculating wake trajectory ...
 Calculating source influence matrix ...

 Solving BL system ...

 Side 1  free  transition at x/c =  0.8345   70
 Side 2 forced transition at x/c =  1.0000   81

   1   rms: 0.1265E-01   max: -.5882E-01   D at    6  2   RLX: 0.691
       a =  2.200      CL =  0.1307
      Cm = -0.0390     CD =  0.04643   =>   CDf =  0.00953    CDp =  0.03690

 Side 1  free  transition at x/c =  0.8332   70
 Side 2 forced transition at x/c =  1.0000   81

   2   rms: 0.4553E-02   max: -.1879E-01   D at    6  2
       a =  2.200      CL =  0.1341
      Cm = -0.0393     CD =  0.04651   =>   CDf =  0.00954    CDp =  0.03697

 Side 1  free  transition at x/c =  0.8325   70
 Side 2 forced transition at x/c =  1.0000   81

   3   rms: 0.2114E-03   max: -.8021E-03   D at   92  2
       a =  2.200      CL =  0.1343
      Cm = -0.0393     CD =  0.04653   =>   CDf =  0.00955    CDp =  0.03697

 Side 1  free  transition at x/c =  0.8325   70
 Side 2 forced transition at x/c =  1.0000   81

   4   rms: 0.9881E-05   max: -.4632E-04   D at   91  2
       a =  2.200      CL =  0.1343
      Cm = -0.0393     CD =  0.04653   =>   CDf =  0.00955    CDp =  0.03698
 plradd ia,ip,cpol           45          80  0.21225892    

 Point added to stored polar  1
 Save file unspecified or not available
 Dump file unspecified or not available

.OPERva   c>  
.OPERva   c>  
.OPERva   c>   Calculating wake trajectory ...
 Calculating source influence matrix ...

 Solving BL system ...

 Side 1  free  transition at x/c =  0.8325   70
 Side 2 forced transition at x/c =  1.0000   81

   1   rms: 0.1395E-01   max: -.9047E-01   D at    3  2   RLX: 0.696
       a =  2.250      CL =  0.1416
      Cm = -0.0401     CD =  0.04670   =>   CDf =  0.00955    CDp =  0.03715

 Side 1  free  transition at x/c =  0.8310   70
 Side 2 forced transition at x/c =  1.0000   81

   2   rms: 0.6044E-02   max: -.3411E-01   T at    3  2
       a =  2.250      CL =  0.1469
      Cm = -0.0407     CD =  0.04683   =>   CDf =  0.00957    CDp =  0.03726

 Side 1  free  transition at x/c =  0.8302   70
 Side 2 forced transition at x/c =  1.0000   81

   3   rms: 0.5411E-03   max: -.1809E-02   D at   92  2
       a =  2.250      CL =  0.1474
      Cm = -0.0408     CD =  0.04686   =>   CDf =  0.00958    CDp =  0.03728

 Side 1  free  transition at x/c =  0.8302   70
 Side 2 forced transition at x/c =  1.0000   81

   4   rms: 0.2600E-04   max: -.1050E-03   D at   91  2
       a =  2.250      CL =  0.1474
      Cm = -0.0408     CD =  0.04686   =>   CDf =  0.00958    CDp =  0.03728
 plradd ia,ip,cpol           46          80  0.21225892    

 Point added to stored polar  1
 Save file unspecified or not available
 Dump file unspecified or not available

.OPERva   c>  
.OPERva   c>  
.OPERva   c>   Calculating wake trajectory ...
 Calculating source influence matrix ...

 Solving BL system ...

 Side 1  free  transition at x/c =  0.8302   70
 Side 2 forced transition at x/c =  1.0000   81

   1   rms: 0.2619E-01   max: 0.2438E+00   T at    3  2   RLX: 0.708
       a =  2.300      CL =  0.1586
      Cm = -0.0421     CD =  0.04711   =>   CDf =  0.00958    CDp =  0.03753

 Side 1  free  transition at x/c =  0.8287   69
 Side 2 forced transition at x/c =  1.0000   81

   2   rms: 0.7093E-02   max: 0.6492E-01   D at    3  2
       a =  2.300      CL =  0.1543
      Cm = -0.0414     CD =  0.04717   =>   CDf =  0.00961    CDp =  0.03756

 Side 1  free  transition at x/c =  0.8282   69
 Side 2 forced transition at x/c =  1.0000   81

   3   rms: 0.3184E-03   max: 0.1983E-02   C at   81  2
       a =  2.300      CL =  0.1546
      Cm = -0.0415     CD =  0.04712   =>   CDf =  0.00960    CDp =  0.03752

 Side 1  free  transition at x/c =  0.8282   69
 Side 2 forced transition at x/c =  1.0000   81

   4   rms: 0.6745E-05   max: -.4954E-04   D at   91  2
       a =  2.300      CL =  0.1546
      Cm = -0.0415     CD =  0.04712   =>   CDf =  0.00960    CDp =  0.03752
 plradd ia,ip,cpol           47          80  0.21225892    

 Point added to stored polar  1
 Save file unspecified or not available
 Dump file unspecified or not available

.OPERva   c>  
.OPERva   c>  
.OPERva   c>   Calculating wake trajectory ...
 Calculating source influence matrix ...

 Solving BL system ...

 Side 1  free  transition at x/c =  0.8282   69
 Side 2 forced transition at x/c =  1.0000   81

   1   rms: 0.1074E-01   max: 0.8002E-01   T at   69  1   RLX: 0.691
       a =  2.350      CL =  0.1523
      Cm = -0.0410     CD =  0.04721   =>   CDf =  0.00960    CDp =  0.03760

 Side 1  free  transition at x/c =  0.8270   69
 Side 2 forced transition at x/c =  1.0000   81

   2   rms: 0.3022E-02   max: -.2261E-01   D at    4  2
       a =  2.350      CL =  0.1530
      Cm = -0.0410     CD =  0.04721   =>   CDf =  0.00960    CDp =  0.03760

 Side 1  free  transition at x/c =  0.8263   69
 Side 2 forced transition at x/c =  1.0000   81

   3   rms: 0.1093E-03   max: 0.4257E-03   C at   81  2
       a =  2.350      CL =  0.1531
      Cm = -0.0410     CD =  0.04720   =>   CDf =  0.00961    CDp =  0.03759

 Side 1  free  transition at x/c =  0.8263   69
 Side 2 forced transition at x/c =  1.0000   81

   4   rms: 0.4135E-05   max: -.2855E-04   C at   81  2
       a =  2.350      CL =  0.1531
      Cm = -0.0410     CD =  0.04720   =>   CDf =  0.00961    CDp =  0.03759
 plradd ia,ip,cpol           48          80  0.21225892    

 Point added to stored polar  1
 Save file unspecified or not available
 Dump file unspecified or not available

.OPERva   c>  
.OPERva   c>  
.OPERva   c>   Calculating wake trajectory ...
 Calculating source influence matrix ...

 Solving BL system ...

 Side 1  free  transition at x/c =  0.8263   69
 Side 2 forced transition at x/c =  1.0000   81

   1   rms: 0.1612E-01   max: -.1818E+00   D at    3  2   RLX: 0.687
       a =  2.400      CL =  0.1534
      Cm = -0.0409     CD =  0.04732   =>   CDf =  0.00961    CDp =  0.03771

 Side 1  free  transition at x/c =  0.8252   69
 Side 2 forced transition at x/c =  1.0000   81

   2   rms: 0.5432E-02   max: -.6106E-01   T at    3  2
       a =  2.400      CL =  0.1544
      Cm = -0.0409     CD =  0.04734   =>   CDf =  0.00961    CDp =  0.03773

 Side 1  free  transition at x/c =  0.8246   69
 Side 2 forced transition at x/c =  1.0000   81

   3   rms: 0.1936E-03   max: 0.1982E-02   D at    4  2
       a =  2.400      CL =  0.1545
      Cm = -0.0409     CD =  0.04733   =>   CDf =  0.00961    CDp =  0.03772

 Side 1  free  transition at x/c =  0.8246   69
 Side 2 forced transition at x/c =  1.0000   81

   4   rms: 0.7333E-05   max: -.9438E-04   D at    4  2
       a =  2.400      CL =  0.1545
      Cm = -0.0409     CD =  0.04733   =>   CDf =  0.00961    CDp =  0.03772
 plradd ia,ip,cpol           49          80  0.21225892    

 Point added to stored polar  1
 Save file unspecified or not available
 Dump file unspecified or not available

.OPERva   c>  
.OPERva   c>  
.OPERva   c>   Calculating wake trajectory ...
 Calculating source influence matrix ...

 Solving BL system ...

 Side 1  free  transition at x/c =  0.8246   69
 Side 2 forced transition at x/c =  1.0000   81

   1   rms: 0.9981E-02   max: -.8005E-01   D at    5  1   RLX: 0.684
       a =  2.450      CL =  0.1561
      Cm = -0.0410     CD =  0.04748   =>   CDf =  0.00960    CDp =  0.03788

 Side 1  free  transition at x/c =  0.8234   70
 Side 2 forced transition at x/c =  1.0000   80

   2   rms: 0.1612E-01   max: -.2643E+00   D at    2  1
       a =  2.450      CL =  0.1574
      Cm = -0.0411     CD =  0.04752   =>   CDf =  0.00962    CDp =  0.03790

 Side 1  free  transition at x/c =  0.8227   70
 Side 2 forced transition at x/c =  1.0000   80

   3   rms: 0.4603E-03   max: -.5706E-02   D at    4  1
       a =  2.450      CL =  0.1574
      Cm = -0.0411     CD =  0.04751   =>   CDf =  0.00963    CDp =  0.03788

 Side 1  free  transition at x/c =  0.8227   70
 Side 2 forced transition at x/c =  1.0000   80

   4   rms: 0.5382E-05   max: 0.6567E-04   D at    4  1
       a =  2.450      CL =  0.1574
      Cm = -0.0411     CD =  0.04751   =>   CDf =  0.00963    CDp =  0.03788
 plradd ia,ip,cpol           50          81  0.19712920    

 Point added to stored polar  1
 Save file unspecified or not available
 Dump file unspecified or not available

.OPERva   c>  
.OPERva   c>  
.OPERva   c>   Calculating wake trajectory ...
 Calculating source influence matrix ...

 Solving BL system ...

 Side 1  free  transition at x/c =  0.8227   70
 Side 2 forced transition at x/c =  1.0000   80

   1   rms: 0.9440E-02   max: 0.6974E-01   D at    4  1   RLX: 0.683
       a =  2.500      CL =  0.1601
      Cm = -0.0413     CD =  0.04766   =>   CDf =  0.00963    CDp =  0.03803

 Side 1  free  transition at x/c =  0.8215   70
 Side 2 forced transition at x/c =  1.0000   80

   2   rms: 0.3115E-02   max: 0.1986E-01   D at    4  1
       a =  2.500      CL =  0.1619
      Cm = -0.0415     CD =  0.04771   =>   CDf =  0.00964    CDp =  0.03808

 Side 1  free  transition at x/c =  0.8209   70
 Side 2 forced transition at x/c =  1.0000   80

   3   rms: 0.6096E-04   max: 0.3982E-03   C at   80  2
       a =  2.500      CL =  0.1620
      Cm = -0.0415     CD =  0.04771   =>   CDf =  0.00964    CDp =  0.03807
 plradd ia,ip,cpol           51          81  0.19712920    

 Point added to stored polar  1
 Save file unspecified or not available
 Dump file unspecified or not available

.OPERva   c>  
.OPERva   c>  
.OPERva   c>   Calculating wake trajectory ...
 Calculating source influence matrix ...

 Solving BL system ...

 Side 1  free  transition at x/c =  0.8209   70
 Side 2 forced transition at x/c =  1.0000   80

   1   rms: 0.1886E-01   max: -.1777E+00   D at    3  1   RLX: 0.683
       a =  2.550      CL =  0.1659
      Cm = -0.0418     CD =  0.04785   =>   CDf =  0.00964    CDp =  0.03821

 Side 1  free  transition at x/c =  0.8193   70
 Side 2 forced transition at x/c =  1.0000   80

   2   rms: 0.7184E-02   max: -.6205E-01   D at    3  1
       a =  2.550      CL =  0.1687
      Cm = -0.0421     CD =  0.04792   =>   CDf =  0.00965    CDp =  0.03827

 Side 1  free  transition at x/c =  0.8186   70
 Side 2 forced transition at x/c =  1.0000   80

   3   rms: 0.1548E-03   max: 0.8460E-03   D at    5  2
       a =  2.550      CL =  0.1688
      Cm = -0.0421     CD =  0.04792   =>   CDf =  0.00966    CDp =  0.03827

 Side 1  free  transition at x/c =  0.8185   70
 Side 2 forced transition at x/c =  1.0000   80

   4   rms: 0.4255E-05   max: -.3060E-04   C at   80  2
       a =  2.550      CL =  0.1688
      Cm = -0.0421     CD =  0.04793   =>   CDf =  0.00966    CDp =  0.03827
 plradd ia,ip,cpol           52          81  0.19712920    

 Point added to stored polar  1
 Save file unspecified or not available
 Dump file unspecified or not available

.OPERva   c>  
.OPERva   c>  
.OPERva   c>   Calculating wake trajectory ...
 Calculating source influence matrix ...

 Solving BL system ...

 Side 1  free  transition at x/c =  0.8185   70
 Side 2 forced transition at x/c =  1.0000   80

   1   rms: 0.1616E-01   max: 0.1329E+00   T at    3  1   RLX: 0.686
       a =  2.600      CL =  0.1739
      Cm = -0.0426     CD =  0.04809   =>   CDf =  0.00966    CDp =  0.03843

 Side 1  free  transition at x/c =  0.8172   70
 Side 2 forced transition at x/c =  1.0000   80

   2   rms: 0.5176E-02   max: 0.3946E-01   D at    3  2
       a =  2.600      CL =  0.1771
      Cm = -0.0429     CD =  0.04817   =>   CDf =  0.00967    CDp =  0.03850

 Side 1  free  transition at x/c =  0.8165   70
 Side 2 forced transition at x/c =  1.0000   80

   3   rms: 0.1807E-03   max: -.6786E-03   D at   92  2
       a =  2.600      CL =  0.1773
      Cm = -0.0429     CD =  0.04818   =>   CDf =  0.00968    CDp =  0.03850

 Side 1  free  transition at x/c =  0.8165   70
 Side 2 forced transition at x/c =  1.0000   80

   4   rms: 0.6624E-05   max: -.3964E-04   C at   80  2
       a =  2.600      CL =  0.1773
      Cm = -0.0429     CD =  0.04818   =>   CDf =  0.00968    CDp =  0.03850
 plradd ia,ip,cpol           53          81  0.19712920    

 Point added to stored polar  1
 Save file unspecified or not available
 Dump file unspecified or not available

.OPERva   c>  
.OPERva   c>  
.OPERva   c>   Calculating wake trajectory ...
 Calculating source influence matrix ...

 Solving BL system ...

 Side 1  free  transition at x/c =  0.8165   70
 Side 2 forced transition at x/c =  1.0000   80

   1   rms: 0.1505E-01   max: -.9946E-01   D at    3  1   RLX: 0.691
       a =  2.650      CL =  0.1850
      Cm = -0.0437     CD =  0.04835   =>   CDf =  0.00968    CDp =  0.03867

 Side 1  free  transition at x/c =  0.8148   70
 Side 2 forced transition at x/c =  1.0000   80

   2   rms: 0.6554E-02   max: 0.1080E-01   T at   89  2
       a =  2.650      CL =  0.1909
      Cm = -0.0444     CD =  0.04847   =>   CDf =  0.00969    CDp =  0.03877

 Side 1  free  transition at x/c =  0.8139   70
 Side 2 forced transition at x/c =  1.0000   80

   3   rms: 0.6194E-03   max: -.2076E-02   D at   92  2
       a =  2.650      CL =  0.1914
      Cm = -0.0444     CD =  0.04850   =>   CDf =  0.00970    CDp =  0.03879

 Side 1  free  transition at x/c =  0.8139   70
 Side 2 forced transition at x/c =  1.0000   80

   4   rms: 0.2908E-04   max: -.1217E-03   D at   90  2
       a =  2.650      CL =  0.1915
      Cm = -0.0444     CD =  0.04850   =>   CDf =  0.00970    CDp =  0.03880
 plradd ia,ip,cpol           54          81  0.19712920    

 Point added to stored polar  1
 Save file unspecified or not available
 Dump file unspecified or not available

.OPERva   c>  
.OPERva   c>  
.OPERva   c>   Calculating wake trajectory ...
 Calculating source influence matrix ...

 Solving BL system ...

 Side 1  free  transition at x/c =  0.8139   70
 Side 2 forced transition at x/c =  1.0000   80

   1   rms: 0.1859E-01   max: 0.3251E-01   T at   89  2   RLX: 0.704
       a =  2.700      CL =  0.2026
      Cm = -0.0456     CD =  0.04873   =>   CDf =  0.00970    CDp =  0.03902

 Side 1  free  transition at x/c =  0.8122   69
 Side 2 forced transition at x/c =  1.0000   80

   2   rms: 0.3442E-02   max: 0.2824E-01   T at   69  1
       a =  2.700      CL =  0.2017
      Cm = -0.0455     CD =  0.04883   =>   CDf =  0.00973    CDp =  0.03911

 Side 1  free  transition at x/c =  0.8117   69
 Side 2 forced transition at x/c =  1.0000   80

   3   rms: 0.3376E-03   max: 0.8848E-03   C at   80  2
       a =  2.700      CL =  0.2020
      Cm = -0.0455     CD =  0.04882   =>   CDf =  0.00973    CDp =  0.03909

 Side 1  free  transition at x/c =  0.8117   69
 Side 2 forced transition at x/c =  1.0000   80

   4   rms: 0.8790E-05   max: -.5125E-04   D at   89  2
       a =  2.700      CL =  0.2020
      Cm = -0.0455     CD =  0.04882   =>   CDf =  0.00973    CDp =  0.03910
 plradd ia,ip,cpol           55          81  0.19712920    

 Point added to stored polar  1
 Save file unspecified or not available
 Dump file unspecified or not available

.OPERva   c>  
.OPERva   c>  
.OPERva   c>   Calculating wake trajectory ...
 Calculating source influence matrix ...

 Solving BL system ...

 Side 1  free  transition at x/c =  0.8117   69
 Side 2 forced transition at x/c =  1.0000   80

   1   rms: 0.9806E-02   max: 0.8287E-01   T at   69  1   RLX: 0.689
       a =  2.750      CL =  0.1993
      Cm = -0.0450     CD =  0.04895   =>   CDf =  0.00973    CDp =  0.03922

 Side 1  free  transition at x/c =  0.8105   69
 Side 2 forced transition at x/c =  1.0000   80

   2   rms: 0.2557E-02   max: 0.2209E-01   T at   69  1
       a =  2.750      CL =  0.2000
      Cm = -0.0450     CD =  0.04896   =>   CDf =  0.00973    CDp =  0.03924

 Side 1  free  transition at x/c =  0.8099   69
 Side 2 forced transition at x/c =  1.0000   80

   3   rms: 0.9810E-04   max: -.4108E-03   D at   72  1
       a =  2.750      CL =  0.2001
      Cm = -0.0450     CD =  0.04895   =>   CDf =  0.00973    CDp =  0.03922
 plradd ia,ip,cpol           56          81  0.19712920    

 Point added to stored polar  1
 Save file unspecified or not available
 Dump file unspecified or not available

.OPERva   c>  
.OPERva   c>  
.OPERva   c>   Calculating wake trajectory ...
 Calculating source influence matrix ...

 Solving BL system ...

 Side 1  free  transition at x/c =  0.8098   69
 Side 2 forced transition at x/c =  1.0000   80

   1   rms: 0.1405E-01   max: 0.1121E+00   D at    3  2   RLX: 0.685
       a =  2.800      CL =  0.2002
      Cm = -0.0449     CD =  0.04911   =>   CDf =  0.00973    CDp =  0.03938

 Side 1  free  transition at x/c =  0.8087   69
 Side 2 forced transition at x/c =  1.0000   80

   2   rms: 0.4065E-02   max: 0.3303E-01   D at    3  2
       a =  2.800      CL =  0.2012
      Cm = -0.0450     CD =  0.04915   =>   CDf =  0.00973    CDp =  0.03942

 Side 1  free  transition at x/c =  0.8081   69
 Side 2 forced transition at x/c =  1.0000   80

   3   rms: 0.5950E-04   max: -.2665E-03   D at   72  1
       a =  2.800      CL =  0.2012
      Cm = -0.0450     CD =  0.04913   =>   CDf =  0.00973    CDp =  0.03940
 plradd ia,ip,cpol           57          81  0.19712920    

 Point added to stored polar  1
 Save file unspecified or not available
 Dump file unspecified or not available

.OPERva   c>  
.OPERva   c>  
.OPERva   c>   Calculating wake trajectory ...
 Calculating source influence matrix ...

 Solving BL system ...

